26

 N    4.739581355723    4.504808002529    0.153367073819
 C    5.960671355723    5.195038002529    0.163987073819
 H    5.879161355723    6.280218002529    0.224077073819
 C    4.667131355723    3.161208002529    0.082957073819
 O    3.523211355723    2.547848002529    0.074267073819
 N    5.831091355723    2.495528002529    0.022197073819
 H    5.806691355723    1.477218002529   -0.031292926181
 C    7.171711355723    3.073738002529    0.025077073819
 O    8.124501355723    2.326058002529   -0.034452926181
 C    7.145091355723    4.531488002529    0.103337073819
 H    8.093101355723    5.069338002529    0.111927073819
 H    3.865771355723    5.020908002529    0.199597073819
LI    2.438251355723    1.673598002529    1.344977073819
LI    2.387891355723    1.816478002529   -1.243242926181
 O   -3.825467246231   -2.766430078104   -0.080631478873
 C   -4.969383989669   -3.379788805049   -0.089321488246
 N   -5.041836525669   -4.723386603236   -0.159716082047
 H   -4.168025636508   -5.239478843623   -0.205931030895
 C   -6.262918485752   -5.413613577505   -0.170339676036
 H   -6.181413045865   -6.498789978667   -0.230416740957
 C   -7.447338214212   -4.750062802167   -0.109702098702
 H   -8.395350168398   -5.287908122321   -0.118301308480
 C   -7.473954824053   -3.292303462660   -0.031463526623
 O   -8.426747753575   -2.544628004685    0.028047405927
 N   -6.133340893274   -2.714102151172   -0.028576989432
 H   -6.108942178957   -1.695796842997    0.024892647578
