26

 N    4.777703826462    4.532376688221    0.154170635366
 C    5.998793826462    5.222606688221    0.164790635366
 H    5.917283826462    6.307786688221    0.224880635366
 C    4.705253826462    3.188776688221    0.083760635366
 O    3.561333826462    2.575416688221    0.075070635366
 N    5.869213826462    2.523096688221    0.023000635366
 H    5.844813826462    1.504786688221   -0.030489364634
 C    7.209833826462    3.101306688221    0.025880635366
 O    8.162623826462    2.353626688221   -0.033649364634
 C    7.183213826462    4.559056688221    0.104140635366
 H    8.131223826462    5.096906688221    0.112730635366
 H    3.903893826462    5.048476688221    0.200400635366
LI    2.476373826462    1.701166688221    1.345780635366
LI    2.426013826462    1.844046688221   -1.242439364634
 O   -3.868364757335   -2.797451886966   -0.081535690738
 C   -5.012281500773   -3.410810613911   -0.090225700111
 N   -5.084734036773   -4.754408412097   -0.160620293912
 H   -4.210923147612   -5.270500652484   -0.206835242760
 C   -6.305815996857   -5.444635386366   -0.171243887901
 H   -6.224310556969   -6.529811787528   -0.231320952822
 C   -7.490235725316   -4.781084611029   -0.110606310567
 H   -8.438247679502   -5.318929931183   -0.119205520345
 C   -7.516852335157   -3.323325271522   -0.032367738488
 O   -8.469645264680   -2.575649813547    0.027143194062
 N   -6.176238404379   -2.745123960034   -0.029481201297
 H   -6.151839690061   -1.726818651859    0.023988435713
