26

 N    4.892071238680    4.615082745298    0.156581320006
 C    6.113161238680    5.305312745298    0.167201320006
 H    6.031651238680    6.390492745298    0.227291320006
 C    4.819621238680    3.271482745298    0.086171320006
 O    3.675701238680    2.658122745298    0.077481320006
 N    5.983581238680    2.605802745298    0.025411320006
 H    5.959181238680    1.587492745298   -0.028078679994
 C    7.324201238680    3.184012745298    0.028291320006
 O    8.276991238680    2.436332745298   -0.031238679994
 C    7.297581238680    4.641762745298    0.106551320006
 H    8.245591238680    5.179612745298    0.115141320006
 H    4.018261238680    5.131182745298    0.202811320006
LI    2.590741238680    1.783872745298    1.348191320006
LI    2.540381238680    1.926752745298   -1.240028679994
 O   -3.997057290648   -2.890517313551   -0.084248326333
 C   -5.140974034086   -3.503876040496   -0.092938335706
 N   -5.213426570085   -4.847473838682   -0.163332929507
 H   -4.339615680925   -5.363566079069   -0.209547878355
 C   -6.434508530169   -5.537700812951   -0.173956523496
 H   -6.353003090282   -6.622877214113   -0.234033588417
 C   -7.618928258629   -4.874150037613   -0.113318946162
 H   -8.566940212815   -5.411995357767   -0.121918155941
 C   -7.645544868469   -3.416390698107   -0.035080374083
 O   -8.598337797992   -2.668715240131    0.024430558467
 N   -6.304930937691   -2.838189386619   -0.032193836892
 H   -6.280532223374   -1.819884078443    0.021275800118
