26

 N    4.930193709419    4.642651430990    0.157384881552
 C    6.151283709419    5.332881430990    0.168004881552
 H    6.069773709419    6.418061430990    0.228094881552
 C    4.857743709419    3.299051430990    0.086974881552
 O    3.713823709419    2.685691430990    0.078284881552
 N    6.021703709419    2.633371430990    0.026214881552
 H    5.997303709419    1.615061430990   -0.027275118448
 C    7.362323709419    3.211581430990    0.029094881552
 O    8.315113709419    2.463901430990   -0.030435118448
 C    7.335703709419    4.669331430990    0.107354881552
 H    8.283713709419    5.207181430990    0.115944881552
 H    4.056383709419    5.158751430990    0.203614881552
LI    2.628863709419    1.811441430990    1.348994881552
LI    2.578503709419    1.954321430990   -1.239225118448
 O   -4.039954801752   -2.921539122412   -0.085152538198
 C   -5.183871545190   -3.534897849357   -0.093842547571
 N   -5.256324081190   -4.878495647543   -0.164237141372
 H   -4.382513192029   -5.394587887930   -0.210452090220
 C   -6.477406041273   -5.568722621812   -0.174860735361
 H   -6.395900601386   -6.653899022975   -0.234937800282
 C   -7.661825769733   -4.905171846475   -0.114223158028
 H   -8.609837723919   -5.443017166629   -0.122822367806
 C   -7.688442379574   -3.447412506968   -0.035984585948
 O   -8.641235309096   -2.699737048993    0.023526346602
 N   -6.347828448795   -2.869211195480   -0.033098048757
 H   -6.323429734478   -1.850905887305    0.020371588253
