26

 N    4.968316180159    4.670220116682    0.158188443099
 C    6.189406180159    5.360450116682    0.168808443099
 H    6.107896180159    6.445630116682    0.228898443099
 C    4.895866180159    3.326620116682    0.087778443099
 O    3.751946180159    2.713260116682    0.079088443099
 N    6.059826180159    2.660940116682    0.027018443099
 H    6.035426180159    1.642630116682   -0.026471556901
 C    7.400446180159    3.239150116682    0.029898443099
 O    8.353236180159    2.491470116682   -0.029631556901
 C    7.373826180159    4.696900116682    0.108158443099
 H    8.321836180159    5.234750116682    0.116748443099
 H    4.094506180159    5.186320116682    0.204418443099
LI    2.666986180159    1.839010116682    1.349798443099
LI    2.616626180159    1.981890116682   -1.238421556901
 O   -4.082852312856   -2.952560931274   -0.086056750063
 C   -5.226769056294   -3.565919658219   -0.094746759436
 N   -5.299221592294   -4.909517456405   -0.165141353237
 H   -4.425410703133   -5.425609696792   -0.211356302085
 C   -6.520303552378   -5.599744430674   -0.175764947226
 H   -6.438798112490   -6.684920831836   -0.235842012147
 C   -7.704723280837   -4.936193655337   -0.115127369893
 H   -8.652735235023   -5.474038975491   -0.123726579671
 C   -7.731339890678   -3.478434315830   -0.036888797813
 O   -8.684132820201   -2.730758857854    0.022622134737
 N   -6.390725959900   -2.900233004342   -0.034002260622
 H   -6.366327245582   -1.881927696166    0.019467376388
