26

 N    5.006438650898    4.697788802374    0.158992004645
 C    6.227528650898    5.388018802374    0.169612004645
 H    6.146018650898    6.473198802374    0.229702004645
 C    4.933988650898    3.354188802374    0.088582004645
 O    3.790068650898    2.740828802374    0.079892004645
 N    6.097948650898    2.688508802374    0.027822004645
 H    6.073548650898    1.670198802374   -0.025667995355
 C    7.438568650898    3.266718802374    0.030702004645
 O    8.391358650898    2.519038802374   -0.028827995355
 C    7.411948650898    4.724468802374    0.108962004645
 H    8.359958650898    5.262318802374    0.117552004645
 H    4.132628650898    5.213888802374    0.205222004645
LI    2.705108650898    1.866578802374    1.350602004645
LI    2.654748650898    2.009458802374   -1.237617995355
 O   -4.125749823960   -2.983582740135   -0.086960961928
 C   -5.269666567398   -3.596941467080   -0.095650971301
 N   -5.342119103398   -4.940539265266   -0.166045565102
 H   -4.468308214238   -5.456631505654   -0.212260513950
 C   -6.563201063482   -5.630766239535   -0.176669159091
 H   -6.481695623594   -6.715942640698   -0.236746224012
 C   -7.747620791941   -4.967215464198   -0.116031581758
 H   -8.695632746127   -5.505060784352   -0.124630791536
 C   -7.774237401782   -3.509456124691   -0.037793009678
 O   -8.727030331305   -2.761780666716    0.021717922872
 N   -6.433623471004   -2.931254813203   -0.034906472487
 H   -6.409224756687   -1.912949505028    0.018563164523
