26

 N    5.197051004595    4.835632230835    0.163009812378
 C    6.418141004595    5.525862230835    0.173629812378
 H    6.336631004595    6.611042230835    0.233719812378
 C    5.124601004595    3.492032230835    0.092599812378
 O    3.980681004595    2.878672230835    0.083909812378
 N    6.288561004595    2.826352230835    0.031839812378
 H    6.264161004595    1.808042230835   -0.021650187622
 C    7.629181004595    3.404562230835    0.034719812378
 O    8.581971004595    2.656882230835   -0.024810187622
 C    7.602561004595    4.862312230835    0.112979812378
 H    8.550571004595    5.400162230835    0.121569812378
 H    4.323241004595    5.351732230835    0.209239812378
LI    2.895721004595    2.004422230835    1.354619812378
LI    2.845361004595    2.147302230835   -1.233600187622
 O   -4.340237379481   -3.138691784443   -0.091482021253
 C   -5.484154122919   -3.752050511388   -0.100172030627
 N   -5.556606658919   -5.095648309574   -0.170566624427
 H   -4.682795769759   -5.611740549961   -0.216781573276
 C   -6.777688619003   -5.785875283843   -0.181190218417
 H   -6.696183179115   -6.871051685005   -0.241267283337
 C   -7.962108347462   -5.122324508506   -0.120552641083
 H   -8.910120301648   -5.660169828660   -0.129151850861
 C   -7.988724957303   -3.664565168999   -0.042314069003
 O   -8.941517886826   -2.916889711024    0.017196863547
 N   -6.648111026525   -3.086363857511   -0.039427531812
 H   -6.623712312208   -2.068058549336    0.014042105198
