26

 N    5.235173475334    4.863200916527    0.163813373925
 C    6.456263475334    5.553430916527    0.174433373925
 H    6.374753475334    6.638610916527    0.234523373925
 C    5.162723475334    3.519600916527    0.093403373925
 O    4.018803475334    2.906240916527    0.084713373925
 N    6.326683475334    2.853920916527    0.032643373925
 H    6.302283475334    1.835610916527   -0.020846626075
 C    7.667303475334    3.432130916527    0.035523373925
 O    8.620093475334    2.684450916527   -0.024006626075
 C    7.640683475334    4.889880916527    0.113783373925
 H    8.588693475334    5.427730916527    0.122373373925
 H    4.361363475334    5.379300916527    0.210043373925
LI    2.933843475334    2.031990916527    1.355423373925
LI    2.883483475334    2.174870916527   -1.232796626075
 O   -4.383134890586   -3.169713593305   -0.092386233118
 C   -5.527051634024   -3.783072320250   -0.101076242492
 N   -5.599504170023   -5.126670118436   -0.171470836292
 H   -4.725693280863   -5.642762358823   -0.217685785141
 C   -6.820586130107   -5.816897092705   -0.182094430282
 H   -6.739080690220   -6.902073493867   -0.242171495202
 C   -8.005005858567   -5.153346317367   -0.121456852948
 H   -8.953017812753   -5.691191637521   -0.130056062726
 C   -8.031622468407   -3.695586977861   -0.043218280868
 O   -8.984415397930   -2.947911519885    0.016292651682
 N   -6.691008537629   -3.117385666372   -0.040331743677
 H   -6.666609823312   -2.099080358197    0.013137893333
