26

 N    5.311418416813    4.918338287911    0.165420497018
 C    6.532508416813    5.608568287911    0.176040497018
 H    6.450998416813    6.693748287911    0.236130497018
 C    5.238968416813    3.574738287911    0.095010497018
 O    4.095048416813    2.961378287911    0.086320497018
 N    6.402928416813    2.909058287911    0.034250497018
 H    6.378528416813    1.890748287911   -0.019239502982
 C    7.743548416813    3.487268287911    0.037130497018
 O    8.696338416813    2.739588287911   -0.022399502982
 C    7.716928416813    4.945018287911    0.115390497018
 H    8.664938416813    5.482868287911    0.123980497018
 H    4.437608416813    5.434438287911    0.211650497018
LI    3.010088416813    2.087128287911    1.357030497018
LI    2.959728416813    2.230008287911   -1.231189502982
 O   -4.468929912794   -3.231757211028   -0.094194656848
 C   -5.612846656232   -3.845115937973   -0.102884666222
 N   -5.685299192232   -5.188713736159   -0.173279260022
 H   -4.811488303071   -5.704805976546   -0.219494208871
 C   -6.906381152315   -5.878940710428   -0.183902854012
 H   -6.824875712428   -6.964117111590   -0.243979918932
 C   -8.090800880775   -5.215389935090   -0.123265276678
 H   -9.038812834961   -5.753235255245   -0.131864486456
 C   -8.117417490616   -3.757630595584   -0.045026704598
 O   -9.070210420138   -3.009955137608    0.014484227951
 N   -6.776803559837   -3.179429284096   -0.042140167407
 H   -6.752404845520   -2.161123975920    0.011329469603
