26

 N    5.349540887552    4.945906973603    0.166224058564
 C    6.570630887552    5.636136973603    0.176844058564
 H    6.489120887552    6.721316973603    0.236934058564
 C    5.277090887552    3.602306973603    0.095814058564
 O    4.133170887552    2.988946973603    0.087124058564
 N    6.441050887552    2.936626973603    0.035054058564
 H    6.416650887552    1.918316973603   -0.018435941436
 C    7.781670887552    3.514836973603    0.037934058564
 O    8.734460887552    2.767156973603   -0.021595941436
 C    7.755050887552    4.972586973603    0.116194058564
 H    8.703060887552    5.510436973603    0.124784058564
 H    4.475730887552    5.462006973603    0.212454058564
LI    3.048210887552    2.114696973603    1.357834058564
LI    2.997850887552    2.257576973603   -1.230385941436
 O   -4.511827423898   -3.262779019889   -0.095098868713
 C   -5.655744167336   -3.876137746834   -0.103788878087
 N   -5.728196703336   -5.219735545020   -0.174183471887
 H   -4.854385814175   -5.735827785408   -0.220398420736
 C   -6.949278663420   -5.909962519289   -0.184807065877
 H   -6.867773223532   -6.995138920452   -0.244884130797
 C   -8.133698391879   -5.246411743952   -0.124169488543
 H   -9.081710346065   -5.784257064106   -0.132768698321
 C   -8.160315001720   -3.788652404445   -0.045930916463
 O   -9.113107931243   -3.040976946470    0.013580016086
 N   -6.819701070942   -3.210451092957   -0.043044379272
 H   -6.795302356624   -2.192145784782    0.010425257738
