26

 N    5.387663358292    4.973475659295    0.167027620111
 C    6.608753358292    5.663705659295    0.177647620111
 H    6.527243358292    6.748885659295    0.237737620111
 C    5.315213358292    3.629875659295    0.096617620111
 O    4.171293358292    3.016515659295    0.087927620111
 N    6.479173358292    2.964195659295    0.035857620111
 H    6.454773358292    1.945885659295   -0.017632379889
 C    7.819793358292    3.542405659295    0.038737620111
 O    8.772583358292    2.794725659295   -0.020792379889
 C    7.793173358292    5.000155659295    0.116997620111
 H    8.741183358292    5.538005659295    0.125587620111
 H    4.513853358292    5.489575659295    0.213257620111
LI    3.086333358292    2.142265659295    1.358637620111
LI    3.035973358292    2.285145659295   -1.229582379889
 O   -4.554724935002   -3.293800828751   -0.096003080578
 C   -5.698641678440   -3.907159555696   -0.104693089952
 N   -5.771094214440   -5.250757353882   -0.175087683752
 H   -4.897283325280   -5.766849594269   -0.221302632601
 C   -6.992176174524   -5.940984328151   -0.185711277742
 H   -6.910670734636   -7.026160729313   -0.245788342662
 C   -8.176595902983   -5.277433552814   -0.125073700408
 H   -9.124607857169   -5.815278872968   -0.133672910186
 C   -8.203212512824   -3.819674213307   -0.046835128328
 O   -9.156005442347   -3.071998755331    0.012675804221
 N   -6.862598582046   -3.241472901819   -0.043948591137
 H   -6.838199867728   -2.223167593644    0.009521045873
