26

 N    5.425785829031    5.001044344987    0.167831181657
 C    6.646875829031    5.691274344987    0.178451181657
 H    6.565365829031    6.776454344987    0.238541181657
 C    5.353335829031    3.657444344987    0.097421181657
 O    4.209415829031    3.044084344987    0.088731181657
 N    6.517295829031    2.991764344987    0.036661181657
 H    6.492895829031    1.973454344987   -0.016828818343
 C    7.857915829031    3.569974344987    0.039541181657
 O    8.810705829031    2.822294344987   -0.019988818343
 C    7.831295829031    5.027724344987    0.117801181657
 H    8.779305829031    5.565574344987    0.126391181657
 H    4.551975829031    5.517144344987    0.214061181657
LI    3.124455829031    2.169834344987    1.359441181657
LI    3.074095829031    2.312714344987   -1.228778818343
 O   -4.597622446107   -3.324822637612   -0.096907292443
 C   -5.741539189544   -3.938181364557   -0.105597301817
 N   -5.813991725544   -5.281779162743   -0.175991895617
 H   -4.940180836384   -5.797871403131   -0.222206844466
 C   -7.035073685628   -5.972006137013   -0.186615489607
 H   -6.953568245741   -7.057182538175   -0.246692554527
 C   -8.219493414088   -5.308455361675   -0.125977912273
 H   -9.167505368274   -5.846300681829   -0.134577122051
 C   -8.246110023928   -3.850696022168   -0.047739340193
 O   -9.198902953451   -3.103020564193    0.011771592356
 N   -6.905496093150   -3.272494710680   -0.044852803002
 H   -6.881097378833   -2.254189402505    0.008616834008
