26

 N    5.502030770510    5.056181716372    0.169438304751
 C    6.723120770510    5.746411716372    0.180058304751
 H    6.641610770510    6.831591716372    0.240148304751
 C    5.429580770510    3.712581716372    0.099028304751
 O    4.285660770510    3.099221716372    0.090338304751
 N    6.593540770510    3.046901716372    0.038268304751
 H    6.569140770510    2.028591716372   -0.015221695249
 C    7.934160770510    3.625111716372    0.041148304751
 O    8.886950770510    2.877431716372   -0.018381695249
 C    7.907540770510    5.082861716372    0.119408304751
 H    8.855550770510    5.620711716372    0.127998304751
 H    4.628220770510    5.572281716372    0.215668304751
LI    3.200700770510    2.224971716372    1.361048304751
LI    3.150340770510    2.367851716372   -1.227171695249
 O   -4.683417468315   -3.386866255335   -0.098715716173
 C   -5.827334211753   -4.000224982280   -0.107405725547
 N   -5.899786747753   -5.343822780467   -0.177800319347
 H   -5.025975858592   -5.859915020854   -0.224015268196
 C   -7.120868707836   -6.034049754736   -0.188423913337
 H   -7.039363267949   -7.119226155898   -0.248500978257
 C   -8.305288436296   -5.370498979398   -0.127786336003
 H   -9.253300390482   -5.908344299552   -0.136385545781
 C   -8.331905046137   -3.912739639891   -0.049547763923
 O   -9.284697975659   -3.165064181916    0.009963168626
 N   -6.991291115358   -3.334538328403   -0.046661226732
 H   -6.966892401041   -2.316233020228    0.006808410278
