26

 N    5.578275711988    5.111319087756    0.171045427844
 C    6.799365711988    5.801549087756    0.181665427844
 H    6.717855711988    6.886729087756    0.241755427844
 C    5.505825711988    3.767719087756    0.100635427844
 O    4.361905711988    3.154359087756    0.091945427844
 N    6.669785711988    3.102039087756    0.039875427844
 H    6.645385711988    2.083729087756   -0.013614572156
 C    8.010405711988    3.680249087756    0.042755427844
 O    8.963195711988    2.932569087756   -0.016774572156
 C    7.983785711988    5.137999087756    0.121015427844
 H    8.931795711988    5.675849087756    0.129605427844
 H    4.704465711988    5.627419087756    0.217275427844
LI    3.276945711988    2.280109087756    1.362655427844
LI    3.226585711988    2.422989087756   -1.225564572156
 O   -4.769212490523   -3.448909873058   -0.100524139903
 C   -5.913129233961   -4.062268600003   -0.109214149277
 N   -5.985581769961   -5.405866398190   -0.179608743077
 H   -5.111770880801   -5.921958638577   -0.225823691926
 C   -7.206663730045   -6.096093372459   -0.190232337067
 H   -7.125158290157   -7.181269773621   -0.250309401987
 C   -8.391083458504   -5.432542597121   -0.129594759733
 H   -9.339095412690   -5.970387917275   -0.138193969511
 C   -8.417700068345   -3.974783257614   -0.051356187653
 O   -9.370492997868   -3.227107799639    0.008154744896
 N   -7.077086137567   -3.396581946126   -0.048469650462
 H   -7.052687423249   -2.378276637951    0.004999986548
