10

 C    0.963789367971   -1.762317209236    0.000000000000
 C   -0.135509632029   -0.713457209236    0.000000000000
 N   -1.415117632029   -1.217246209236    0.000000000000
 H   -2.189790632029   -0.566662209236    0.000000000000
 H   -1.601788632029   -2.209297209236    0.000000000000
 O    0.086082367971    0.499544790764    0.000000000000
 H    1.934454367971   -1.253172209236    0.000000000000
 H    0.884151367971   -2.403322209236    0.892247000000
 H    0.884151367971   -2.403322209236   -0.892247000000
NA    0.373613021518    2.073497179901    0.000000000000
