10

 C    0.948679390136   -1.845029731950    0.000000000000
 C   -0.150619609864   -0.796169731950    0.000000000000
 N   -1.430227609864   -1.299958731950    0.000000000000
 H   -2.204900609864   -0.649374731950    0.000000000000
 H   -1.616898609864   -2.292009731950    0.000000000000
 O    0.070972390136    0.416832268050    0.000000000000
 H    1.919344390136   -1.335884731950    0.000000000000
 H    0.869041390136   -2.486034731950    0.892247000000
 H    0.869041390136   -2.486034731950   -0.892247000000
NA    0.412415041223    2.285900730151    0.000000000000
