10

 C    0.943642730858   -1.872600572854    0.000000000000
 C   -0.155656269142   -0.823740572854    0.000000000000
 N   -1.435264269142   -1.327529572854    0.000000000000
 H   -2.209937269142   -0.676945572854    0.000000000000
 H   -1.621935269142   -2.319580572854    0.000000000000
 O    0.065935730858    0.389261427146    0.000000000000
 H    1.914307730858   -1.363455572854    0.000000000000
 H    0.864004730858   -2.513605572854    0.892247000000
 H    0.864004730858   -2.513605572854   -0.892247000000
NA    0.425349047792    2.356701913567    0.000000000000
