10

 C    0.938606071580   -1.900171413759    0.000000000000
 C   -0.160692928420   -0.851311413759    0.000000000000
 N   -1.440300928420   -1.355100413759    0.000000000000
 H   -2.214973928420   -0.704516413759    0.000000000000
 H   -1.626971928420   -2.347151413759    0.000000000000
 O    0.060899071580    0.361690586241    0.000000000000
 H    1.909271071580   -1.391026413759    0.000000000000
 H    0.858968071580   -2.541176413759    0.892247000000
 H    0.858968071580   -2.541176413759   -0.892247000000
NA    0.438283054360    2.427503096984    0.000000000000
