10

 C    0.933569412302   -1.927742254664    0.000000000000
 C   -0.165729587698   -0.878882254664    0.000000000000
 N   -1.445337587698   -1.382671254664    0.000000000000
 H   -2.220010587698   -0.732087254664    0.000000000000
 H   -1.632008587698   -2.374722254664    0.000000000000
 O    0.055862412302    0.334119745336    0.000000000000
 H    1.904234412302   -1.418597254664    0.000000000000
 H    0.853931412302   -2.568747254664    0.892247000000
 H    0.853931412302   -2.568747254664   -0.892247000000
NA    0.451217060929    2.498304280400    0.000000000000
