10

 C    0.928532753024   -1.955313095568    0.000000000000
 C   -0.170766246976   -0.906453095568    0.000000000000
 N   -1.450374246976   -1.410242095568    0.000000000000
 H   -2.225047246976   -0.759658095568    0.000000000000
 H   -1.637045246976   -2.402293095568    0.000000000000
 O    0.050825753024    0.306548904432    0.000000000000
 H    1.899197753024   -1.446168095568    0.000000000000
 H    0.848894753024   -2.596318095568    0.892247000000
 H    0.848894753024   -2.596318095568   -0.892247000000
NA    0.464151067497    2.569105463817    0.000000000000
