10

 C    0.908386115911   -2.065596459187    0.000000000000
 C   -0.190912884089   -1.016736459187    0.000000000000
 N   -1.470520884089   -1.520525459187    0.000000000000
 H   -2.245193884089   -0.869941459187    0.000000000000
 H   -1.657191884089   -2.512576459187    0.000000000000
 O    0.030679115911    0.196265540813    0.000000000000
 H    1.879051115911   -1.556451459187    0.000000000000
 H    0.828748115911   -2.706601459187    0.892247000000
 H    0.828748115911   -2.706601459187   -0.892247000000
NA    0.515887093771    2.852310197482    0.000000000000
