10

 C    0.903349456633   -2.093167300091    0.000000000000
 C   -0.195949543367   -1.044307300091    0.000000000000
 N   -1.475557543367   -1.548096300091    0.000000000000
 H   -2.250230543367   -0.897512300091    0.000000000000
 H   -1.662228543367   -2.540147300091    0.000000000000
 O    0.025642456633    0.168694699909    0.000000000000
 H    1.874014456633   -1.584022300091    0.000000000000
 H    0.823711456633   -2.734172300091    0.892247000000
 H    0.823711456633   -2.734172300091   -0.892247000000
NA    0.528821100340    2.923111380899    0.000000000000
