10

 C    0.883202819520   -2.203450663710    0.000000000000
 C   -0.216096180480   -1.154590663710    0.000000000000
 N   -1.495704180480   -1.658379663710    0.000000000000
 H   -2.270377180480   -1.007795663710    0.000000000000
 H   -1.682375180480   -2.650430663710    0.000000000000
 O    0.005495819520    0.058411336290    0.000000000000
 H    1.853867819520   -1.694305663710    0.000000000000
 H    0.803564819520   -2.844455663710    0.892247000000
 H    0.803564819520   -2.844455663710   -0.892247000000
NA    0.580557126614    3.206316114565    0.000000000000
