10

 C    0.873129500964   -2.258592345519    0.000000000000
 C   -0.226169499036   -1.209732345519    0.000000000000
 N   -1.505777499036   -1.713521345519    0.000000000000
 H   -2.280450499036   -1.062937345519    0.000000000000
 H   -1.692448499036   -2.705572345519    0.000000000000
 O   -0.004577499036    0.003269654481    0.000000000000
 H    1.843794500964   -1.749447345519    0.000000000000
 H    0.793491500964   -2.899597345519    0.892247000000
 H    0.793491500964   -2.899597345519   -0.892247000000
NA    0.606425139751    3.347918481398    0.000000000000
