10

 C    0.868092841686   -2.286163186423    0.000000000000
 C   -0.231206158314   -1.237303186423    0.000000000000
 N   -1.510814158314   -1.741092186423    0.000000000000
 H   -2.285487158314   -1.090508186423    0.000000000000
 H   -1.697485158314   -2.733143186423    0.000000000000
 O   -0.009614158314   -0.024301186423    0.000000000000
 H    1.838757841686   -1.777018186423    0.000000000000
 H    0.788454841686   -2.927168186423    0.892247000000
 H    0.788454841686   -2.927168186423   -0.892247000000
NA    0.619359146320    3.418719664814    0.000000000000
