10

 C    0.863056182408   -2.313734027328    0.000000000000
 C   -0.236242817592   -1.264874027328    0.000000000000
 N   -1.515850817592   -1.768663027328    0.000000000000
 H   -2.290523817592   -1.118079027328    0.000000000000
 H   -1.702521817592   -2.760714027328    0.000000000000
 O   -0.014650817592   -0.051872027328    0.000000000000
 H    1.833721182408   -1.804589027328    0.000000000000
 H    0.783418182408   -2.954739027328    0.892247000000
 H    0.783418182408   -2.954739027328   -0.892247000000
NA    0.632293152888    3.489520848231    0.000000000000
