10

 C    0.858019523129   -2.341304868233    0.000000000000
 C   -0.241279476871   -1.292444868233    0.000000000000
 N   -1.520887476871   -1.796233868233    0.000000000000
 H   -2.295560476871   -1.145649868233    0.000000000000
 H   -1.707558476871   -2.788284868233    0.000000000000
 O   -0.019687476871   -0.079442868233    0.000000000000
 H    1.828684523129   -1.832159868233    0.000000000000
 H    0.778381523129   -2.982309868233    0.892247000000
 H    0.778381523129   -2.982309868233   -0.892247000000
NA    0.645227159457    3.560322031647    0.000000000000
