10

 C    0.832836226739   -2.479159072756    0.000000000000
 C   -0.266462773261   -1.430299072756    0.000000000000
 N   -1.546070773261   -1.934088072756    0.000000000000
 H   -2.320743773261   -1.283504072756    0.000000000000
 H   -1.732741773261   -2.926139072756    0.000000000000
 O   -0.044870773261   -0.217297072756    0.000000000000
 H    1.803501226739   -1.970014072756    0.000000000000
 H    0.753198226739   -3.120164072756    0.892247000000
 H    0.753198226739   -3.120164072756   -0.892247000000
NA    0.709897192299    3.914327948730    0.000000000000
