10

 C    0.827799567460   -2.506729913660    0.000000000000
 C   -0.271499432540   -1.457869913660    0.000000000000
 N   -1.551107432540   -1.961658913660    0.000000000000
 H   -2.325780432540   -1.311074913660    0.000000000000
 H   -1.737778432540   -2.953709913660    0.000000000000
 O   -0.049907432540   -0.244867913660    0.000000000000
 H    1.798464567460   -1.997584913660    0.000000000000
 H    0.748161567460   -3.147734913660    0.892247000000
 H    0.748161567460   -3.147734913660   -0.892247000000
NA    0.722831198868    3.985129132146    0.000000000000
