10

 C    0.817726248904   -2.561871595470    0.000000000000
 C   -0.281572751096   -1.513011595470    0.000000000000
 N   -1.561180751096   -2.016800595470    0.000000000000
 H   -2.335853751096   -1.366216595470    0.000000000000
 H   -1.747851751096   -3.008851595470    0.000000000000
 O   -0.059980751096   -0.300009595470    0.000000000000
 H    1.788391248904   -2.052726595470    0.000000000000
 H    0.738088248904   -3.202876595470    0.892247000000
 H    0.738088248904   -3.202876595470   -0.892247000000
NA    0.748699212005    4.126731498979    0.000000000000
