10

 C    0.792542952513   -2.699725799993    0.000000000000
 C   -0.306756047487   -1.650865799993    0.000000000000
 N   -1.586364047487   -2.154654799993    0.000000000000
 H   -2.361037047487   -1.504070799993    0.000000000000
 H   -1.773035047487   -3.146705799993    0.000000000000
 O   -0.085164047487   -0.437863799993    0.000000000000
 H    1.763207952513   -2.190580799993    0.000000000000
 H    0.712904952513   -3.340730799993    0.892247000000
 H    0.712904952513   -3.340730799993   -0.892247000000
NA    0.813369244847    4.480737416061    0.000000000000
