10

 C    0.782469633957   -2.754867481802    0.000000000000
 C   -0.316829366043   -1.706007481802    0.000000000000
 N   -1.596437366043   -2.209796481802    0.000000000000
 H   -2.371110366043   -1.559212481802    0.000000000000
 H   -1.783108366043   -3.201847481802    0.000000000000
 O   -0.095237366043   -0.493005481802    0.000000000000
 H    1.753134633957   -2.245722481802    0.000000000000
 H    0.702831633957   -3.395872481802    0.892247000000
 H    0.702831633957   -3.395872481802   -0.892247000000
NA    0.839237257984    4.622339782894    0.000000000000
