10

 C    0.767359656122   -2.837580004516    0.000000000000
 C   -0.331939343878   -1.788720004516    0.000000000000
 N   -1.611547343878   -2.292509004516    0.000000000000
 H   -2.386220343878   -1.641925004516    0.000000000000
 H   -1.798218343878   -3.284560004516    0.000000000000
 O   -0.110347343878   -0.575718004516    0.000000000000
 H    1.738024656122   -2.328435004516    0.000000000000
 H    0.687721656122   -3.478585004516    0.892247000000
 H    0.687721656122   -3.478585004516   -0.892247000000
NA    0.878039277690    4.834743333144    0.000000000000
