10

 C    0.762322996844   -2.865150845420    0.000000000000
 C   -0.336976003156   -1.816290845420    0.000000000000
 N   -1.616584003156   -2.320079845420    0.000000000000
 H   -2.391257003156   -1.669495845420    0.000000000000
 H   -1.803255003156   -3.312130845420    0.000000000000
 O   -0.115384003156   -0.603288845420    0.000000000000
 H    1.732987996844   -2.356005845420    0.000000000000
 H    0.682684996844   -3.506155845420    0.892247000000
 H    0.682684996844   -3.506155845420   -0.892247000000
NA    0.890973284258    4.905544516560    0.000000000000
