10

 C    0.757286337566   -2.892721686325    0.000000000000
 C   -0.342012662434   -1.843861686325    0.000000000000
 N   -1.621620662434   -2.347650686325    0.000000000000
 H   -2.396293662434   -1.697066686325    0.000000000000
 H   -1.808291662434   -3.339701686325    0.000000000000
 O   -0.120420662434   -0.630859686325    0.000000000000
 H    1.727951337566   -2.383576686325    0.000000000000
 H    0.677648337566   -3.533726686325    0.892247000000
 H    0.677648337566   -3.533726686325   -0.892247000000
NA    0.903907290827    4.976345699977    0.000000000000
