10

 C    0.747213019010   -2.947863368134    0.000000000000
 C   -0.352085980990   -1.899003368134    0.000000000000
 N   -1.631693980990   -2.402792368134    0.000000000000
 H   -2.406366980990   -1.752208368134    0.000000000000
 H   -1.818364980990   -3.394843368134    0.000000000000
 O   -0.130493980990   -0.686001368134    0.000000000000
 H    1.717878019010   -2.438718368134    0.000000000000
 H    0.667575019010   -3.588868368134    0.892247000000
 H    0.667575019010   -3.588868368134   -0.892247000000
NA    0.929775303964    5.117948066810    0.000000000000
