10

 C    0.737139700453   -3.003005049943    0.000000000000
 C   -0.362159299547   -1.954145049943    0.000000000000
 N   -1.641767299547   -2.457934049943    0.000000000000
 H   -2.416440299547   -1.807350049943    0.000000000000
 H   -1.828438299547   -3.449985049943    0.000000000000
 O   -0.140567299547   -0.741143049943    0.000000000000
 H    1.707804700453   -2.493860049943    0.000000000000
 H    0.657501700453   -3.644010049943    0.892247000000
 H    0.657501700453   -3.644010049943   -0.892247000000
NA    0.955643317101    5.259550433643    0.000000000000
