10

 C    0.732103041175   -3.030575890848    0.000000000000
 C   -0.367195958825   -1.981715890848    0.000000000000
 N   -1.646803958825   -2.485504890848    0.000000000000
 H   -2.421476958825   -1.834920890848    0.000000000000
 H   -1.833474958825   -3.477555890848    0.000000000000
 O   -0.145603958825   -0.768713890848    0.000000000000
 H    1.702768041175   -2.521430890848    0.000000000000
 H    0.652465041175   -3.671580890848    0.892247000000
 H    0.652465041175   -3.671580890848   -0.892247000000
NA    0.968577323670    5.330351617059    0.000000000000
