10

 C    0.722029722619   -3.085717572657    0.000000000000
 C   -0.377269277381   -2.036857572657    0.000000000000
 N   -1.656877277381   -2.540646572657    0.000000000000
 H   -2.431550277381   -1.890062572657    0.000000000000
 H   -1.843548277381   -3.532697572657    0.000000000000
 O   -0.155677277381   -0.823855572657    0.000000000000
 H    1.692694722619   -2.576572572657    0.000000000000
 H    0.642391722619   -3.726722572657    0.892247000000
 H    0.642391722619   -3.726722572657   -0.892247000000
NA    0.994445336807    5.471953983892    0.000000000000
