10

 C    0.711956404063   -3.140859254466    0.000000000000
 C   -0.387342595937   -2.091999254466    0.000000000000
 N   -1.666950595937   -2.595788254466    0.000000000000
 H   -2.441623595937   -1.945204254466    0.000000000000
 H   -1.853621595937   -3.587839254466    0.000000000000
 O   -0.165750595937   -0.878997254466    0.000000000000
 H    1.682621404063   -2.631714254466    0.000000000000
 H    0.632318404063   -3.781864254466    0.892247000000
 H    0.632318404063   -3.781864254466   -0.892247000000
NA    1.020313349944    5.613556350725    0.000000000000
