10

 C    0.706919744784   -3.168430095371    0.000000000000
 C   -0.392379255216   -2.119570095371    0.000000000000
 N   -1.671987255216   -2.623359095371    0.000000000000
 H   -2.446660255216   -1.972775095371    0.000000000000
 H   -1.858658255216   -3.615410095371    0.000000000000
 O   -0.170787255216   -0.906568095371    0.000000000000
 H    1.677584744784   -2.659285095371    0.000000000000
 H    0.627281744784   -3.809435095371    0.892247000000
 H    0.627281744784   -3.809435095371   -0.892247000000
NA    1.033247356512    5.684357534141    0.000000000000
