10

 C    0.701883085506   -3.196000936275    0.000000000000
 C   -0.397415914494   -2.147140936275    0.000000000000
 N   -1.677023914494   -2.650929936275    0.000000000000
 H   -2.451696914494   -2.000345936275    0.000000000000
 H   -1.863694914494   -3.642980936275    0.000000000000
 O   -0.175823914494   -0.934138936275    0.000000000000
 H    1.672548085506   -2.686855936275    0.000000000000
 H    0.622245085506   -3.837005936275    0.892247000000
 H    0.622245085506   -3.837005936275   -0.892247000000
NA    1.046181363081    5.755158717558    0.000000000000
