10

 C    0.691809766950   -3.251142618085    0.000000000000
 C   -0.407489233050   -2.202282618085    0.000000000000
 N   -1.687097233050   -2.706071618085    0.000000000000
 H   -2.461770233050   -2.055487618085    0.000000000000
 H   -1.873768233050   -3.698122618085    0.000000000000
 O   -0.185897233050   -0.989280618085    0.000000000000
 H    1.662474766950   -2.741997618085    0.000000000000
 H    0.612171766950   -3.892147618085    0.892247000000
 H    0.612171766950   -3.892147618085   -0.892247000000
NA    1.072049376218    5.896761084391    0.000000000000
