10

 C    0.671663129837   -3.361425981703    0.000000000000
 C   -0.427635870163   -2.312565981703    0.000000000000
 N   -1.707243870163   -2.816354981703    0.000000000000
 H   -2.481916870163   -2.165770981703    0.000000000000
 H   -1.893914870163   -3.808405981703    0.000000000000
 O   -0.206043870163   -1.099563981703    0.000000000000
 H    1.642328129837   -2.852280981703    0.000000000000
 H    0.592025129837   -4.002430981703    0.892247000000
 H    0.592025129837   -4.002430981703   -0.892247000000
NA    1.123785402492    6.179965818057    0.000000000000
