10

 C    0.666626470559   -3.388996822608    0.000000000000
 C   -0.432672529441   -2.340136822608    0.000000000000
 N   -1.712280529441   -2.843925822608    0.000000000000
 H   -2.486953529441   -2.193341822608    0.000000000000
 H   -1.898951529441   -3.835976822608    0.000000000000
 O   -0.211080529441   -1.127134822608    0.000000000000
 H    1.637291470559   -2.879851822608    0.000000000000
 H    0.586988470559   -4.030001822608    0.892247000000
 H    0.586988470559   -4.030001822608   -0.892247000000
NA    1.136719409060    6.250767001473    0.000000000000
