10

 C    0.641443174168   -3.526851027131    0.000000000000
 C   -0.457855825832   -2.477991027131    0.000000000000
 N   -1.737463825832   -2.981780027131    0.000000000000
 H   -2.512136825832   -2.331196027131    0.000000000000
 H   -1.924134825832   -3.973831027131    0.000000000000
 O   -0.236263825832   -1.264989027131    0.000000000000
 H    1.612108174168   -3.017706027131    0.000000000000
 H    0.561805174168   -4.167856027131    0.892247000000
 H    0.561805174168   -4.167856027131   -0.892247000000
NA    1.201389441903    6.604772918556    0.000000000000
