10

 C    0.636406514890   -3.554421868035    0.000000000000
 C   -0.462892485110   -2.505561868035    0.000000000000
 N   -1.742500485110   -3.009350868035    0.000000000000
 H   -2.517173485110   -2.358766868035    0.000000000000
 H   -1.929171485110   -4.001401868035    0.000000000000
 O   -0.241300485110   -1.292559868035    0.000000000000
 H    1.607071514890   -3.045276868035    0.000000000000
 H    0.556768514890   -4.195426868035    0.892247000000
 H    0.556768514890   -4.195426868035   -0.892247000000
NA    1.214323448471    6.675574101972    0.000000000000
