10

 C    0.631369855612   -3.581992708940    0.000000000000
 C   -0.467929144388   -2.533132708940    0.000000000000
 N   -1.747537144388   -3.036921708940    0.000000000000
 H   -2.522210144388   -2.386337708940    0.000000000000
 H   -1.934208144388   -4.028972708940    0.000000000000
 O   -0.246337144388   -1.320130708940    0.000000000000
 H    1.602034855612   -3.072847708940    0.000000000000
 H    0.551731855612   -4.222997708940    0.892247000000
 H    0.551731855612   -4.222997708940   -0.892247000000
NA    1.227257455040    6.746375285389    0.000000000000
