10

 C    0.621296537056   -3.637134390749    0.000000000000
 C   -0.478002462944   -2.588274390749    0.000000000000
 N   -1.757610462944   -3.092063390749    0.000000000000
 H   -2.532283462944   -2.441479390749    0.000000000000
 H   -1.944281462944   -4.084114390749    0.000000000000
 O   -0.256410462944   -1.375272390749    0.000000000000
 H    1.591961537056   -3.127989390749    0.000000000000
 H    0.541658537056   -4.278139390749    0.892247000000
 H    0.541658537056   -4.278139390749   -0.892247000000
NA    1.253125468177    6.887977652222    0.000000000000
