10

 C    0.586039922108   -3.830130277081    0.000000000000
 C   -0.513259077892   -2.781270277081    0.000000000000
 N   -1.792867077892   -3.285059277081    0.000000000000
 H   -2.567540077892   -2.634475277081    0.000000000000
 H   -1.979538077892   -4.277110277081    0.000000000000
 O   -0.291667077892   -1.568268277081    0.000000000000
 H    1.556704922108   -3.320985277081    0.000000000000
 H    0.506401922108   -4.471135277081    0.892247000000
 H    0.506401922108   -4.471135277081   -0.892247000000
NA    1.343663514157    7.383585936137    0.000000000000
