13

 C    1.447989800701    2.470012349998    0.000000000000
 O    1.364199800701    1.009232349998    0.000000000000
 H    2.269779800701    0.668212349998    0.000000000000
 H    0.419679800701    2.845642349998    0.000000000000
 H    1.968479800701    2.812192349998    0.902150000000
 H    1.968479800701    2.812192349998   -0.902150000000
LI   -0.129870199299   -0.096077650002    0.000000000000
 O   -1.335749510797   -0.988184754616    0.000000000000
 C   -1.419539771795   -2.448963623768    0.000000000000
 H   -2.241328389517   -0.647167496966    0.000000000000
 H   -0.391219401310   -2.824597040874    0.000000000000
 H   -1.940026294063   -2.791145840749   -0.902152315587
 H   -1.940026294063   -2.791145840749    0.902152315587
