13

 C    1.484217558648    2.496813572924    0.000000000000
 O    1.400427558648    1.036033572924    0.000000000000
 H    2.306007558648    0.695013572924    0.000000000000
 H    0.455907558648    2.872443572924    0.000000000000
 H    2.004707558648    2.838993572924    0.902150000000
 H    2.004707558648    2.838993572924   -0.902150000000
LI   -0.093642441352   -0.069276427076    0.000000000000
 O   -1.379913706949   -1.020857338664    0.000000000000
 C   -1.463703967947   -2.481636207816    0.000000000000
 H   -2.285492585669   -0.679840081014    0.000000000000
 H   -0.435383597462   -2.857269624922    0.000000000000
 H   -1.984190490215   -2.823818424797   -0.902152315587
 H   -1.984190490215   -2.823818424797    0.902152315587
