13

 C    1.556673074544    2.550416018777    0.000000000000
 O    1.472883074544    1.089636018777    0.000000000000
 H    2.378463074544    0.748616018777    0.000000000000
 H    0.528363074544    2.926046018777    0.000000000000
 H    2.077163074544    2.892596018777    0.902150000000
 H    2.077163074544    2.892596018777   -0.902150000000
LI   -0.021186925456   -0.015673981223    0.000000000000
 O   -1.468242099253   -1.086202506760    0.000000000000
 C   -1.552032360251   -2.546981375913    0.000000000000
 H   -2.373820977973   -0.745185249111    0.000000000000
 H   -0.523711989766   -2.922614793018    0.000000000000
 H   -2.072518882519   -2.889163592893   -0.902152315587
 H   -2.072518882519   -2.889163592893    0.902152315587
