13

 C    1.592900832492    2.577217241703    0.000000000000
 O    1.509110832492    1.116437241703    0.000000000000
 H    2.414690832492    0.775417241703    0.000000000000
 H    0.564590832492    2.952847241703    0.000000000000
 H    2.113390832492    2.919397241703    0.902150000000
 H    2.113390832492    2.919397241703   -0.902150000000
LI    0.015040832492    0.011127241703    0.000000000000
 O   -1.512406295404   -1.118875090808    0.000000000000
 C   -1.596196556403   -2.579653959961    0.000000000000
 H   -2.417985174125   -0.777857833159    0.000000000000
 H   -0.567876185918   -2.955287377066    0.000000000000
 H   -2.116683078671   -2.921836176942   -0.902152315587
 H   -2.116683078671   -2.921836176942    0.902152315587
