13

 C    4.563576984216    4.774917521651    0.000000000000
 O    4.479786984216    3.314137521651    0.000000000000
 H    5.385366984216    2.973117521651    0.000000000000
 H    3.535266984216    5.150547521651    0.000000000000
 H    5.084066984216    5.117097521651    0.902150000000
 H    5.084066984216    5.117097521651   -0.902150000000
LI    2.985716984216    2.208827521651    0.000000000000
 O   -5.133870379865   -3.798026982751    0.000000000000
 C   -5.217660640863   -5.258805851903    0.000000000000
 H   -6.039449258585   -3.457009725101    0.000000000000
 H   -4.189340270378   -5.634439269009    0.000000000000
 H   -5.738147163131   -5.600988068884   -0.902152315587
 H   -5.738147163131   -5.600988068884    0.902152315587
