13

 C    4.599804742164    4.801718744577    0.000000000000
 O    4.516014742164    3.340938744577    0.000000000000
 H    5.421594742164    2.999918744577    0.000000000000
 H    3.571494742164    5.177348744577    0.000000000000
 H    5.120294742164    5.143898744577    0.902150000000
 H    5.120294742164    5.143898744577   -0.902150000000
LI    3.021944742164    2.235628744577    0.000000000000
 O   -5.178034576017   -3.830699566799    0.000000000000
 C   -5.261824837015   -5.291478435951    0.000000000000
 H   -6.083613454737   -3.489682309149    0.000000000000
 H   -4.233504466530   -5.667111853057    0.000000000000
 H   -5.782311359283   -5.633660652932   -0.902152315587
 H   -5.782311359283   -5.633660652932    0.902152315587
