13

 C    4.708488016008    4.882122413356    0.000000000000
 O    4.624698016008    3.421342413356    0.000000000000
 H    5.530278016008    3.080322413356    0.000000000000
 H    3.680178016008    5.257752413356    0.000000000000
 H    5.228978016008    5.224302413356    0.902150000000
 H    5.228978016008    5.224302413356   -0.902150000000
LI    3.130628016008    2.316032413356    0.000000000000
 O   -5.310527164472   -3.928717318943    0.000000000000
 C   -5.394317425471   -5.389496188096    0.000000000000
 H   -6.216106043193   -3.587700061294    0.000000000000
 H   -4.365997054986   -5.765129605201    0.000000000000
 H   -5.914803947739   -5.731678405076   -0.902152315587
 H   -5.914803947739   -5.731678405076    0.902152315587
