13

 C    4.744715773956    4.908923636282    0.000000000000
 O    4.660925773956    3.448143636282    0.000000000000
 H    5.566505773956    3.107123636282    0.000000000000
 H    3.716405773956    5.284553636282    0.000000000000
 H    5.265205773956    5.251103636282    0.902150000000
 H    5.265205773956    5.251103636282   -0.902150000000
LI    3.166855773956    2.342833636282    0.000000000000
 O   -5.354691360624   -3.961389902991    0.000000000000
 C   -5.438481621622   -5.422168772144    0.000000000000
 H   -6.260270239345   -3.620372645342    0.000000000000
 H   -4.410161251138   -5.797802189249    0.000000000000
 H   -5.958968143891   -5.764350989124   -0.902152315587
 H   -5.958968143891   -5.764350989124    0.902152315587
