13

 C    1.629128590440    2.604018464629    0.000000000000
 O    1.545338590440    1.143238464629    0.000000000000
 H    2.450918590440    0.802218464629    0.000000000000
 H    0.600818590440    2.979648464629    0.000000000000
 H    2.149618590440    2.946198464629    0.902150000000
 H    2.149618590440    2.946198464629   -0.902150000000
LI    0.051268590440    0.037928464629    0.000000000000
 O   -1.556570491556   -1.151547674857    0.000000000000
 C   -1.640360752555   -2.612326544009    0.000000000000
 H   -2.462149370277   -0.810530417207    0.000000000000
 H   -0.612040382070   -2.987959961114    0.000000000000
 H   -2.160847274823   -2.954508760990   -0.902152315587
 H   -2.160847274823   -2.954508760990    0.902152315587
