13

 C    1.665356348388    2.630819687555    0.000000000000
 O    1.581566348388    1.170039687555    0.000000000000
 H    2.487146348388    0.829019687555    0.000000000000
 H    0.637046348388    3.006449687555    0.000000000000
 H    2.185846348388    2.972999687555    0.902150000000
 H    2.185846348388    2.972999687555   -0.902150000000
LI    0.087496348388    0.064729687555    0.000000000000
 O   -1.600734687708   -1.184220258905    0.000000000000
 C   -1.684524948706   -2.644999128057    0.000000000000
 H   -2.506313566429   -0.843203001255    0.000000000000
 H   -0.656204578222   -3.020632545163    0.000000000000
 H   -2.205011470975   -2.987181345038   -0.902152315587
 H   -2.205011470975   -2.987181345038    0.902152315587
