13

 C    1.810267380179    2.738024579260    0.000000000000
 O    1.726477380179    1.277244579260    0.000000000000
 H    2.632057380179    0.936224579260    0.000000000000
 H    0.781957380179    3.113654579260    0.000000000000
 H    2.330757380179    3.080204579260    0.902150000000
 H    2.330757380179    3.080204579260   -0.902150000000
LI    0.232407380179    0.171934579260    0.000000000000
 O   -1.777391472316   -1.314910595097    0.000000000000
 C   -1.861181733314   -2.775689464249    0.000000000000
 H   -2.682970351037   -0.973893337447    0.000000000000
 H   -0.832861362830   -3.151322881355    0.000000000000
 H   -2.381668255582   -3.117871681230   -0.902152315587
 H   -2.381668255582   -3.117871681230    0.902152315587
