13

 C    1.846495138127    2.764825802186    0.000000000000
 O    1.762705138127    1.304045802186    0.000000000000
 H    2.668285138127    0.963025802186    0.000000000000
 H    0.818185138127    3.140455802186    0.000000000000
 H    2.366985138127    3.107005802186    0.902150000000
 H    2.366985138127    3.107005802186   -0.902150000000
LI    0.268635138127    0.198735802186    0.000000000000
 O   -1.821555668468   -1.347583179145    0.000000000000
 C   -1.905345929466   -2.808362048297    0.000000000000
 H   -2.727134547189   -1.006565921495    0.000000000000
 H   -0.877025558982   -3.183995465403    0.000000000000
 H   -2.425832451734   -3.150544265278   -0.902152315587
 H   -2.425832451734   -3.150544265278    0.902152315587
