13

 C    1.882722896075    2.791627025112    0.000000000000
 O    1.798932896075    1.330847025112    0.000000000000
 H    2.704512896075    0.989827025112    0.000000000000
 H    0.854412896075    3.167257025112    0.000000000000
 H    2.403212896075    3.133807025112    0.902150000000
 H    2.403212896075    3.133807025112   -0.902150000000
LI    0.304862896075    0.225537025112    0.000000000000
 O   -1.865719864620   -1.380255763193    0.000000000000
 C   -1.949510125618   -2.841034632345    0.000000000000
 H   -2.771298743341   -1.039238505543    0.000000000000
 H   -0.921189755134   -3.216668049451    0.000000000000
 H   -2.469996647886   -3.183216849326   -0.902152315587
 H   -2.469996647886   -3.183216849326    0.902152315587
