13

 C    1.955178411971    2.845229470965    0.000000000000
 O    1.871388411971    1.384449470965    0.000000000000
 H    2.776968411971    1.043429470965    0.000000000000
 H    0.926868411971    3.220859470965    0.000000000000
 H    2.475668411971    3.187409470965    0.902150000000
 H    2.475668411971    3.187409470965   -0.902150000000
LI    0.377318411971    0.279139470965    0.000000000000
 O   -1.954048256924   -1.445600931289    0.000000000000
 C   -2.037838517922   -2.906379800442    0.000000000000
 H   -2.859627135645   -1.104583673639    0.000000000000
 H   -1.009518147438   -3.282013217547    0.000000000000
 H   -2.558325040190   -3.248562017422   -0.902152315587
 H   -2.558325040190   -3.248562017422    0.902152315587
