13

 C    2.172544959658    3.006036808522    0.000000000000
 O    2.088754959658    1.545256808522    0.000000000000
 H    2.994334959658    1.204236808522    0.000000000000
 H    1.144234959658    3.381666808522    0.000000000000
 H    2.693034959658    3.348216808522    0.902150000000
 H    2.693034959658    3.348216808522   -0.902150000000
LI    0.594684959658    0.439946808522    0.000000000000
 O   -2.219033433836   -1.641636435578    0.000000000000
 C   -2.302823694834   -3.102415304730    0.000000000000
 H   -3.124612312556   -1.300619177928    0.000000000000
 H   -1.274503324349   -3.478048721836    0.000000000000
 H   -2.823310217102   -3.444597521711   -0.902152315587
 H   -2.823310217102   -3.444597521711    0.902152315587
