13

 C    2.281228233501    3.086440477301    0.000000000000
 O    2.197438233501    1.625660477301    0.000000000000
 H    3.103018233501    1.284640477301    0.000000000000
 H    1.252918233501    3.462070477301    0.000000000000
 H    2.801718233501    3.428620477301    0.902150000000
 H    2.801718233501    3.428620477301   -0.902150000000
LI    0.703368233501    0.520350477301    0.000000000000
 O   -2.351526022292   -1.739654187722    0.000000000000
 C   -2.435316283290   -3.200433056874    0.000000000000
 H   -3.257104901012   -1.398636930072    0.000000000000
 H   -1.406995912805   -3.576066473980    0.000000000000
 H   -2.955802805558   -3.542615273855   -0.902152315587
 H   -2.955802805558   -3.542615273855    0.902152315587
