13

 C    2.353683749397    3.140042923153    0.000000000000
 O    2.269893749397    1.679262923153    0.000000000000
 H    3.175473749397    1.338242923153    0.000000000000
 H    1.325373749397    3.515672923153    0.000000000000
 H    2.874173749397    3.482222923153    0.902150000000
 H    2.874173749397    3.482222923153   -0.902150000000
LI    0.775823749397    0.573952923153    0.000000000000
 O   -2.439854414595   -1.804999355818    0.000000000000
 C   -2.523644675594   -3.265778224970    0.000000000000
 H   -3.345433293316   -1.463982098168    0.000000000000
 H   -1.495324305109   -3.641411642076    0.000000000000
 H   -3.044131197862   -3.607960441951   -0.902152315587
 H   -3.044131197862   -3.607960441951    0.902152315587
