13

 C    2.389911507345    3.166844146079    0.000000000000
 O    2.306121507345    1.706064146079    0.000000000000
 H    3.211701507345    1.365044146079    0.000000000000
 H    1.361601507345    3.542474146079    0.000000000000
 H    2.910401507345    3.509024146079    0.902150000000
 H    2.910401507345    3.509024146079   -0.902150000000
LI    0.812051507345    0.600754146079    0.000000000000
 O   -2.484018610747   -1.837671939866    0.000000000000
 C   -2.567808871746   -3.298450809018    0.000000000000
 H   -3.389597489468   -1.496654682216    0.000000000000
 H   -1.539488501261   -3.674084226124    0.000000000000
 H   -3.088295394014   -3.640633025999   -0.902152315587
 H   -3.088295394014   -3.640633025999    0.902152315587
