13

 C    2.426139265293    3.193645369005    0.000000000000
 O    2.342349265293    1.732865369005    0.000000000000
 H    3.247929265293    1.391845369005    0.000000000000
 H    1.397829265293    3.569275369005    0.000000000000
 H    2.946629265293    3.535825369005    0.902150000000
 H    2.946629265293    3.535825369005   -0.902150000000
LI    0.848279265293    0.627555369005    0.000000000000
 O   -2.528182806899   -1.870344523914    0.000000000000
 C   -2.611973067897   -3.331123393067    0.000000000000
 H   -3.433761685620   -1.529327266264    0.000000000000
 H   -1.583652697413   -3.706756810172    0.000000000000
 H   -3.132459590166   -3.673305610047   -0.902152315587
 H   -3.132459590166   -3.673305610047    0.902152315587
