13

 C    2.462367023241    3.220446591932    0.000000000000
 O    2.378577023241    1.759666591932    0.000000000000
 H    3.284157023241    1.418646591932    0.000000000000
 H    1.434057023241    3.596076591932    0.000000000000
 H    2.982857023241    3.562626591932    0.902150000000
 H    2.982857023241    3.562626591932   -0.902150000000
LI    0.884507023241    0.654356591932    0.000000000000
 O   -2.572347003051   -1.903017107962    0.000000000000
 C   -2.656137264049   -3.363795977115    0.000000000000
 H   -3.477925881772   -1.561999850313    0.000000000000
 H   -1.627816893565   -3.739429394220    0.000000000000
 H   -3.176623786318   -3.705978194095   -0.902152315587
 H   -3.176623786318   -3.705978194095    0.902152315587
