13

 C    2.571050297084    3.300850260710    0.000000000000
 O    2.487260297084    1.840070260710    0.000000000000
 H    3.392840297084    1.499050260710    0.000000000000
 H    1.542740297084    3.676480260710    0.000000000000
 H    3.091540297084    3.643030260710    0.902150000000
 H    3.091540297084    3.643030260710   -0.902150000000
LI    0.993190297084    0.734760260710    0.000000000000
 O   -2.704839591507   -2.001034860107    0.000000000000
 C   -2.788629852505   -3.461813729259    0.000000000000
 H   -3.610418470228   -1.660017602457    0.000000000000
 H   -1.760309482021   -3.837447146365    0.000000000000
 H   -3.309116374773   -3.803995946240   -0.902152315587
 H   -3.309116374773   -3.803995946240    0.902152315587
