13

 C    2.643505812980    3.354452706563    0.000000000000
 O    2.559715812980    1.893672706563    0.000000000000
 H    3.465295812980    1.552652706563    0.000000000000
 H    1.615195812980    3.730082706563    0.000000000000
 H    3.163995812980    3.696632706563    0.902150000000
 H    3.163995812980    3.696632706563   -0.902150000000
LI    1.065645812980    0.788362706563    0.000000000000
 O   -2.793167983811   -2.066380028203    0.000000000000
 C   -2.876958244809   -3.527158897355    0.000000000000
 H   -3.698746862532   -1.725362770553    0.000000000000
 H   -1.848637874325   -3.902792314461    0.000000000000
 H   -3.397444767077   -3.869341114336   -0.902152315587
 H   -3.397444767077   -3.869341114336    0.902152315587
