13

 C    2.715961328876    3.408055152415    0.000000000000
 O    2.632171328876    1.947275152415    0.000000000000
 H    3.537751328876    1.606255152415    0.000000000000
 H    1.687651328876    3.783685152415    0.000000000000
 H    3.236451328876    3.750235152415    0.902150000000
 H    3.236451328876    3.750235152415   -0.902150000000
LI    1.138101328876    0.841965152415    0.000000000000
 O   -2.881496376115   -2.131725196299    0.000000000000
 C   -2.965286637113   -3.592504065451    0.000000000000
 H   -3.787075254836   -1.790707938649    0.000000000000
 H   -1.936966266629   -3.968137482557    0.000000000000
 H   -3.485773159381   -3.934686282432   -0.902152315587
 H   -3.485773159381   -3.934686282432    0.902152315587
