13

 C    3.042011150406    3.649266158751    0.000000000000
 O    2.958221150406    2.188486158751    0.000000000000
 H    3.863801150406    1.847466158751    0.000000000000
 H    2.013701150406    4.024896158751    0.000000000000
 H    3.562501150406    3.991446158751    0.902150000000
 H    3.562501150406    3.991446158751   -0.902150000000
LI    1.464151150406    1.083176158751    0.000000000000
 O   -3.278974141483   -2.425778452732    0.000000000000
 C   -3.362764402481   -3.886557321884    0.000000000000
 H   -4.184553020203   -2.084761195082    0.000000000000
 H   -2.334444031996   -4.262190738990    0.000000000000
 H   -3.883250924749   -4.228739538865   -0.902152315587
 H   -3.883250924749   -4.228739538865    0.902152315587
