13

 C    3.078238908354    3.676067381677    0.000000000000
 O    2.994448908354    2.215287381677    0.000000000000
 H    3.900028908354    1.874267381677    0.000000000000
 H    2.049928908354    4.051697381677    0.000000000000
 H    3.598728908354    4.018247381677    0.902150000000
 H    3.598728908354    4.018247381677   -0.902150000000
LI    1.500378908354    1.109977381677    0.000000000000
 O   -3.323138337635   -2.458451036780    0.000000000000
 C   -3.406928598633   -3.919229905932    0.000000000000
 H   -4.228717216355   -2.117433779130    0.000000000000
 H   -2.378608228148   -4.294863323038    0.000000000000
 H   -3.927415120901   -4.261412122913   -0.902152315587
 H   -3.927415120901   -4.261412122913    0.902152315587
