13

 C    3.295605456041    3.836874719234    0.000000000000
 O    3.211815456041    2.376094719234    0.000000000000
 H    4.117395456041    2.035074719234    0.000000000000
 H    2.267295456041    4.212504719234    0.000000000000
 H    3.816095456041    4.179054719234    0.902150000000
 H    3.816095456041    4.179054719234   -0.902150000000
LI    1.717745456041    1.270784719234    0.000000000000
 O   -3.588123514546   -2.654486541068    0.000000000000
 C   -3.671913775544   -4.115265410221    0.000000000000
 H   -4.493702393267   -2.313469283418    0.000000000000
 H   -2.643593405060   -4.490898827326    0.000000000000
 H   -4.192400297812   -4.457447627201   -0.902152315587
 H   -4.192400297812   -4.457447627201    0.902152315587
