13

 C    3.331833213989    3.863675942160    0.000000000000
 O    3.248043213989    2.402895942160    0.000000000000
 H    4.153623213989    2.061875942160    0.000000000000
 H    2.303523213989    4.239305942160    0.000000000000
 H    3.852323213989    4.205855942160    0.902150000000
 H    3.852323213989    4.205855942160   -0.902150000000
LI    1.753973213989    1.297585942160    0.000000000000
 O   -3.632287710698   -2.687159125116    0.000000000000
 C   -3.716077971696   -4.147937994269    0.000000000000
 H   -4.537866589419   -2.346141867466    0.000000000000
 H   -2.687757601212   -4.523571411374    0.000000000000
 H   -4.236564493964   -4.490120211249   -0.902152315587
 H   -4.236564493964   -4.490120211249    0.902152315587
