13

 C    3.476744245781    3.970880833865    0.000000000000
 O    3.392954245781    2.510100833865    0.000000000000
 H    4.298534245781    2.169080833865    0.000000000000
 H    2.448434245781    4.346510833865    0.000000000000
 H    3.997234245781    4.313060833865    0.902150000000
 H    3.997234245781    4.313060833865   -0.902150000000
LI    1.898884245781    1.404790833865    0.000000000000
 O   -3.808944495306   -2.817849461309    0.000000000000
 C   -3.892734756304   -4.278628330461    0.000000000000
 H   -4.714523374027   -2.476832203659    0.000000000000
 H   -2.864414385820   -4.654261747567    0.000000000000
 H   -4.413221278572   -4.620810547442   -0.902152315587
 H   -4.413221278572   -4.620810547442    0.902152315587
