13

 C    3.512972003728    3.997682056791    0.000000000000
 O    3.429182003728    2.536902056791    0.000000000000
 H    4.334762003728    2.195882056791    0.000000000000
 H    2.484662003728    4.373312056791    0.000000000000
 H    4.033462003728    4.339862056791    0.902150000000
 H    4.033462003728    4.339862056791   -0.902150000000
LI    1.935112003728    1.431592056791    0.000000000000
 O   -3.853108691458   -2.850522045357    0.000000000000
 C   -3.936898952456   -4.311300914509    0.000000000000
 H   -4.758687570179   -2.509504787707    0.000000000000
 H   -2.908578581972   -4.686934331615    0.000000000000
 H   -4.457385474724   -4.653483131490   -0.902152315587
 H   -4.457385474724   -4.653483131490    0.902152315587
