13

 C    3.549199761676    4.024483279718    0.000000000000
 O    3.465409761676    2.563703279718    0.000000000000
 H    4.370989761676    2.222683279718    0.000000000000
 H    2.520889761676    4.400113279718    0.000000000000
 H    4.069689761676    4.366663279718    0.902150000000
 H    4.069689761676    4.366663279718   -0.902150000000
LI    1.971339761676    1.458393279718    0.000000000000
 O   -3.897272887610   -2.883194629405    0.000000000000
 C   -3.981063148608   -4.343973498557    0.000000000000
 H   -4.802851766331   -2.542177371755    0.000000000000
 H   -2.952742778123   -4.719606915663    0.000000000000
 H   -4.501549670876   -4.686155715538   -0.902152315587
 H   -4.501549670876   -4.686155715538    0.902152315587
