13

 C    3.585427519624    4.051284502644    0.000000000000
 O    3.501637519624    2.590504502644    0.000000000000
 H    4.407217519624    2.249484502644    0.000000000000
 H    2.557117519624    4.426914502644    0.000000000000
 H    4.105917519624    4.393464502644    0.902150000000
 H    4.105917519624    4.393464502644   -0.902150000000
LI    2.007567519624    1.485194502644    0.000000000000
 O   -3.941437083762   -2.915867213453    0.000000000000
 C   -4.025227344760   -4.376646082605    0.000000000000
 H   -4.847015962483   -2.574849955803    0.000000000000
 H   -2.996906974275   -4.752279499711    0.000000000000
 H   -4.545713867028   -4.718828299586   -0.902152315587
 H   -4.545713867028   -4.718828299586    0.902152315587
