13

 C    3.694110793468    4.131688171422    0.000000000000
 O    3.610320793468    2.670908171422    0.000000000000
 H    4.515900793468    2.329888171422    0.000000000000
 H    2.665800793468    4.507318171422    0.000000000000
 H    4.214600793468    4.473868171422    0.902150000000
 H    4.214600793468    4.473868171422   -0.902150000000
LI    2.116250793468    1.565598171422    0.000000000000
 O   -4.073929672218   -3.013884965597    0.000000000000
 C   -4.157719933216   -4.474663834749    0.000000000000
 H   -4.979508550938   -2.672867707947    0.000000000000
 H   -3.129399562731   -4.850297251855    0.000000000000
 H   -4.678206455484   -4.816846051730   -0.902152315587
 H   -4.678206455484   -4.816846051730    0.902152315587
