13

 C    3.802794067311    4.212091840201    0.000000000000
 O    3.719004067311    2.751311840201    0.000000000000
 H    4.624584067311    2.410291840201    0.000000000000
 H    2.774484067311    4.587721840201    0.000000000000
 H    4.323284067311    4.554271840201    0.902150000000
 H    4.323284067311    4.554271840201   -0.902150000000
LI    2.224934067311    1.646001840201    0.000000000000
 O   -4.206422260674   -3.111902717741    0.000000000000
 C   -4.290212521672   -4.572681586894    0.000000000000
 H   -5.112001139394   -2.770885460092    0.000000000000
 H   -3.261892151187   -4.948315003999    0.000000000000
 H   -4.810699043940   -4.914863803874   -0.902152315587
 H   -4.810699043940   -4.914863803874    0.902152315587
