13

 C    3.839021825259    4.238893063127    0.000000000000
 O    3.755231825259    2.778113063127    0.000000000000
 H    4.660811825259    2.437093063127    0.000000000000
 H    2.810711825259    4.614523063127    0.000000000000
 H    4.359511825259    4.581073063127    0.902150000000
 H    4.359511825259    4.581073063127   -0.902150000000
LI    2.261161825259    1.672803063127    0.000000000000
 O   -4.250586456826   -3.144575301789    0.000000000000
 C   -4.334376717824   -4.605354170942    0.000000000000
 H   -5.156165335546   -2.803558044140    0.000000000000
 H   -3.306056347339   -4.980987588047    0.000000000000
 H   -4.854863240092   -4.947536387922   -0.902152315587
 H   -4.854863240092   -4.947536387922    0.902152315587
