13

 C    3.911477341155    4.292495508980    0.000000000000
 O    3.827687341155    2.831715508980    0.000000000000
 H    4.733267341155    2.490695508980    0.000000000000
 H    2.883167341155    4.668125508980    0.000000000000
 H    4.431967341155    4.634675508980    0.902150000000
 H    4.431967341155    4.634675508980   -0.902150000000
LI    2.333617341155    1.726405508980    0.000000000000
 O   -4.338914849129   -3.209920469886    0.000000000000
 C   -4.422705110128   -4.670699339038    0.000000000000
 H   -5.244493727850   -2.868903212236    0.000000000000
 H   -3.394384739643   -5.046332756144    0.000000000000
 H   -4.943191632396   -5.012881556019   -0.902152315587
 H   -4.943191632396   -5.012881556019    0.902152315587
