13

 C    3.983932857051    4.346097954832    0.000000000000
 O    3.900142857051    2.885317954832    0.000000000000
 H    4.805722857051    2.544297954832    0.000000000000
 H    2.955622857051    4.721727954832    0.000000000000
 H    4.504422857051    4.688277954832    0.902150000000
 H    4.504422857051    4.688277954832   -0.902150000000
LI    2.406072857051    1.780007954832    0.000000000000
 O   -4.427243241433   -3.275265637982    0.000000000000
 C   -4.511033502431   -4.736044507134    0.000000000000
 H   -5.332822120154   -2.934248380332    0.000000000000
 H   -3.482713131947   -5.111677924240    0.000000000000
 H   -5.031520024700   -5.078226724115   -0.902152315587
 H   -5.031520024700   -5.078226724115    0.902152315587
