13

 C    4.020160614998    4.372899177758    0.000000000000
 O    3.936370614998    2.912119177758    0.000000000000
 H    4.841950614998    2.571099177758    0.000000000000
 H    2.991850614998    4.748529177758    0.000000000000
 H    4.540650614998    4.715079177758    0.902150000000
 H    4.540650614998    4.715079177758   -0.902150000000
LI    2.442300614998    1.806809177758    0.000000000000
 O   -4.471407437585   -3.307938222030    0.000000000000
 C   -4.555197698583   -4.768717091182    0.000000000000
 H   -5.376986316306   -2.966920964380    0.000000000000
 H   -3.526877328099   -5.144350508288    0.000000000000
 H   -5.075684220852   -5.110899308163   -0.902152315587
 H   -5.075684220852   -5.110899308163    0.902152315587
