13

 C    4.128843888842    4.453302846537    0.000000000000
 O    4.045053888842    2.992522846537    0.000000000000
 H    4.950633888842    2.651502846537    0.000000000000
 H    3.100533888842    4.828932846537    0.000000000000
 H    4.649333888842    4.795482846537    0.902150000000
 H    4.649333888842    4.795482846537   -0.902150000000
LI    2.550983888842    1.887212846537    0.000000000000
 O   -4.603900026041   -3.405955974174    0.000000000000
 C   -4.687690287039   -4.866734843326    0.000000000000
 H   -5.509478904762   -3.064938716524    0.000000000000
 H   -3.659369916555   -5.242368260432    0.000000000000
 H   -5.208176809307   -5.208917060307   -0.902152315587
 H   -5.208176809307   -5.208917060307    0.902152315587
