13

 C    4.165071646790    4.480104069463    0.000000000000
 O    4.081281646790    3.019324069463    0.000000000000
 H    4.986861646790    2.678304069463    0.000000000000
 H    3.136761646790    4.855734069463    0.000000000000
 H    4.685561646790    4.822284069463    0.902150000000
 H    4.685561646790    4.822284069463   -0.902150000000
LI    2.587211646790    1.914014069463    0.000000000000
 O   -4.648064222193   -3.438628558222    0.000000000000
 C   -4.731854483191   -4.899407427374    0.000000000000
 H   -5.553643100914   -3.097611300572    0.000000000000
 H   -3.703534112707   -5.275040844480    0.000000000000
 H   -5.252341005459   -5.241589644355   -0.902152315587
 H   -5.252341005459   -5.241589644355    0.902152315587
