10

 C    0.530439680534   -1.648296441281    0.000000000000
 C   -0.568859319466   -0.599436441281    0.000000000000
 N   -1.848467319466   -1.103225441281    0.000000000000
 H   -2.623140319466   -0.452641441281    0.000000000000
 H   -2.035138319466   -2.095276441282    0.000000000000
 O   -0.347267319466    0.613565558719    0.000000000000
 H    1.501104680534   -1.139151441282    0.000000000000
 H    0.450801680534   -2.289301441281    0.892247000000
 H    0.450801680534   -2.289301441281   -0.892247000000
 K    0.877046745626    1.050664025906    0.000000000000
