10

 C    0.305776817443   -1.728504449905    0.000000000000
 C   -0.793522182557   -0.679644449905    0.000000000000
 N   -2.073130182557   -1.183433449905    0.000000000000
 H   -2.847803182557   -0.532849449905    0.000000000000
 H   -2.259801182557   -2.175484449905    0.000000000000
 O   -0.571930182557    0.533357550095    0.000000000000
 H    1.276441817443   -1.219359449905    0.000000000000
 H    0.226138817443   -2.369509449905    0.892247000000
 H    0.226138817443   -2.369509449905   -0.892247000000
 K    1.217451912578    1.172193771368    0.000000000000
