10

 C    0.193445385898   -1.768608454217    0.000000000000
 C   -0.905853614102   -0.719748454217    0.000000000000
 N   -2.185461614102   -1.223537454217    0.000000000000
 H   -2.960134614102   -0.572953454217    0.000000000000
 H   -2.372132614102   -2.215588454217    0.000000000000
 O   -0.684261614102    0.493253545783    0.000000000000
 H    1.164110385898   -1.259463454217    0.000000000000
 H    0.113807385898   -2.409613454217    0.892247000000
 H    0.113807385898   -2.409613454217   -0.892247000000
 K    1.387654496054    1.232958644100    0.000000000000
