10

 C    0.118557764868   -1.795344457091    0.000000000000
 C   -0.980741235132   -0.746484457091    0.000000000000
 N   -2.260349235132   -1.250273457091    0.000000000000
 H   -3.035022235132   -0.599689457091    0.000000000000
 H   -2.447020235132   -2.242324457091    0.000000000000
 O   -0.759149235132    0.466517542909    0.000000000000
 H    1.089222764868   -1.286199457091    0.000000000000
 H    0.038919764868   -2.436349457091    0.892247000000
 H    0.038919764868   -2.436349457091   -0.892247000000
 K    1.501122885038    1.273468559254    0.000000000000
