10

 C    0.043670143838   -1.822080459966    0.000000000000
 C   -1.055628856162   -0.773220459966    0.000000000000
 N   -2.335236856162   -1.277009459966    0.000000000000
 H   -3.109909856162   -0.626425459966    0.000000000000
 H   -2.521907856162   -2.269060459966    0.000000000000
 O   -0.834036856162    0.439781540034    0.000000000000
 H    1.014335143838   -1.312935459966    0.000000000000
 H   -0.035967856162   -2.463085459966    0.892247000000
 H   -0.035967856162   -2.463085459966   -0.892247000000
 K    1.614591274022    1.313978474409    0.000000000000
