10

 C    0.006226333323   -1.835448461403    0.000000000000
 C   -1.093072666677   -0.786588461403    0.000000000000
 N   -2.372680666677   -1.290377461403    0.000000000000
 H   -3.147353666677   -0.639793461403    0.000000000000
 H   -2.559351666677   -2.282428461403    0.000000000000
 O   -0.871480666677    0.426413538597    0.000000000000
 H    0.976891333323   -1.326303461403    0.000000000000
 H   -0.073411666677   -2.476453461403    0.892247000000
 H   -0.073411666677   -2.476453461403   -0.892247000000
 K    1.671325468514    1.334233431986    0.000000000000
