10

 C   -0.031217477193   -1.848816462840    0.000000000000
 C   -1.130516477193   -0.799956462840    0.000000000000
 N   -2.410124477193   -1.303745462840    0.000000000000
 H   -3.184797477193   -0.653161462840    0.000000000000
 H   -2.596795477193   -2.295796462840    0.000000000000
 O   -0.908924477193    0.413045537160    0.000000000000
 H    0.939447522807   -1.339671462840    0.000000000000
 H   -0.110855477193   -2.489821462840    0.892247000000
 H   -0.110855477193   -2.489821462840   -0.892247000000
 K    1.728059663006    1.354488389563    0.000000000000
