10

 C   -0.180992719253   -1.902288468589    0.000000000000
 C   -1.280291719253   -0.853428468589    0.000000000000
 N   -2.559899719253   -1.357217468589    0.000000000000
 H   -3.334572719253   -0.706633468589    0.000000000000
 H   -2.746570719253   -2.349268468589    0.000000000000
 O   -1.058699719253    0.359573531411    0.000000000000
 H    0.789672280747   -1.393143468589    0.000000000000
 H   -0.260630719253   -2.543293468589    0.892247000000
 H   -0.260630719253   -2.543293468589   -0.892247000000
 K    1.954996440974    1.435508219871    0.000000000000
