10

 C   -0.218436529768   -1.915656470026    0.000000000000
 C   -1.317735529768   -0.866796470026    0.000000000000
 N   -2.597343529768   -1.370585470026    0.000000000000
 H   -3.372016529768   -0.720001470026    0.000000000000
 H   -2.784014529768   -2.362636470026    0.000000000000
 O   -1.096143529768    0.346205529974    0.000000000000
 H    0.752228470232   -1.406511470026    0.000000000000
 H   -0.298074529768   -2.556661470026    0.892247000000
 H   -0.298074529768   -2.556661470026   -0.892247000000
 K    2.011730635466    1.455763177449    0.000000000000
