10

 C   -0.368211771828   -1.969128475775    0.000000000000
 C   -1.467510771828   -0.920268475775    0.000000000000
 N   -2.747118771828   -1.424057475775    0.000000000000
 H   -3.521791771828   -0.773473475775    0.000000000000
 H   -2.933789771828   -2.416108475775    0.000000000000
 O   -1.245918771828    0.292733524225    0.000000000000
 H    0.602453228172   -1.459983475775    0.000000000000
 H   -0.447849771828   -2.610133475775    0.892247000000
 H   -0.447849771828   -2.610133475775   -0.892247000000
 K    2.238667413434    1.536783007757    0.000000000000
