10

 C   -0.405655582343   -1.982496477213    0.000000000000
 C   -1.504954582343   -0.933636477213    0.000000000000
 N   -2.784562582343   -1.437425477213    0.000000000000
 H   -3.559235582343   -0.786841477213    0.000000000000
 H   -2.971233582343   -2.429476477213    0.000000000000
 O   -1.283362582343    0.279365522787    0.000000000000
 H    0.565009417657   -1.473351477213    0.000000000000
 H   -0.485293582343   -2.623501477213    0.892247000000
 H   -0.485293582343   -2.623501477213   -0.892247000000
 K    2.295401607926    1.557037965334    0.000000000000
