10

 C   -0.480543203374   -2.009232480087    0.000000000000
 C   -1.579842203374   -0.960372480087    0.000000000000
 N   -2.859450203374   -1.464161480087    0.000000000000
 H   -3.634123203374   -0.813577480087    0.000000000000
 H   -3.046121203374   -2.456212480087    0.000000000000
 O   -1.358250203374    0.252629519913    0.000000000000
 H    0.490121796626   -1.500087480087    0.000000000000
 H   -0.560181203374   -2.650237480087    0.892247000000
 H   -0.560181203374   -2.650237480087   -0.892247000000
 K    2.408869996910    1.597547880489    0.000000000000
