10

 C   -0.630318445434   -2.062704485836    0.000000000000
 C   -1.729617445434   -1.013844485836    0.000000000000
 N   -3.009225445434   -1.517633485836    0.000000000000
 H   -3.783898445434   -0.867049485836    0.000000000000
 H   -3.195896445434   -2.509684485836    0.000000000000
 O   -1.508025445434    0.199157514164    0.000000000000
 H    0.340346554566   -1.553559485836    0.000000000000
 H   -0.709956445434   -2.703709485836    0.892247000000
 H   -0.709956445434   -2.703709485836   -0.892247000000
 K    2.635806774878    1.678567710797    0.000000000000
