10

 C   -0.780093687494   -2.116176491585    0.000000000000
 C   -1.879392687494   -1.067316491585    0.000000000000
 N   -3.159000687494   -1.571105491585    0.000000000000
 H   -3.933673687494   -0.920521491585    0.000000000000
 H   -3.345671687494   -2.563156491585    0.000000000000
 O   -1.657800687494    0.145685508415    0.000000000000
 H    0.190571312506   -1.607031491585    0.000000000000
 H   -0.859731687494   -2.757181491585    0.892247000000
 H   -0.859731687494   -2.757181491585   -0.892247000000
 K    2.862743552846    1.759587541106    0.000000000000
