10

 C   -0.817537498009   -2.129544493022    0.000000000000
 C   -1.916836498009   -1.080684493022    0.000000000000
 N   -3.196444498009   -1.584473493022    0.000000000000
 H   -3.971117498009   -0.933889493022    0.000000000000
 H   -3.383115498009   -2.576524493022    0.000000000000
 O   -1.695244498009    0.132317506978    0.000000000000
 H    0.153127501991   -1.620399493022    0.000000000000
 H   -0.897175498009   -2.770549493022    0.892247000000
 H   -0.897175498009   -2.770549493022   -0.892247000000
 K    2.919477747338    1.779842498683    0.000000000000
