10

 C   -1.117087982130   -2.236488504520    0.000000000000
 C   -2.216386982130   -1.187628504520    0.000000000000
 N   -3.495994982130   -1.691417504520    0.000000000000
 H   -4.270667982130   -1.040833504520    0.000000000000
 H   -3.682665982130   -2.683468504520    0.000000000000
 O   -1.994794982130    0.025373495480    0.000000000000
 H   -0.146422982130   -1.727343504520    0.000000000000
 H   -1.196725982130   -2.877493504520    0.892247000000
 H   -1.196725982130   -2.877493504520   -0.892247000000
 K    3.373351303274    1.941882159300    0.000000000000
