10

 C   -1.229419413675   -2.276592508832    0.000000000000
 C   -2.328718413675   -1.227732508832    0.000000000000
 N   -3.608326413675   -1.731521508832    0.000000000000
 H   -4.382999413675   -1.080937508832    0.000000000000
 H   -3.794997413675   -2.723572508832    0.000000000000
 O   -2.107126413675   -0.014730508832    0.000000000000
 H   -0.258754413675   -1.767447508832    0.000000000000
 H   -1.309057413675   -2.917597508832    0.892247000000
 H   -1.309057413675   -2.917597508832   -0.892247000000
 K    3.543553886750    2.002647032032    0.000000000000
