10

 C   -1.304307034706   -2.303328511706    0.000000000000
 C   -2.403606034706   -1.254468511706    0.000000000000
 N   -3.683214034706   -1.758257511706    0.000000000000
 H   -4.457887034706   -1.107673511706    0.000000000000
 H   -3.869885034706   -2.750308511706    0.000000000000
 O   -2.182014034706   -0.041466511706    0.000000000000
 H   -0.333642034706   -1.794183511706    0.000000000000
 H   -1.383945034706   -2.944333511706    0.892247000000
 H   -1.383945034706   -2.944333511706   -0.892247000000
 K    3.657022275734    2.043156947186    0.000000000000
