10

 C   -1.491526087281   -2.370168518893    0.000000000000
 C   -2.590825087281   -1.321308518893    0.000000000000
 N   -3.870433087281   -1.825097518893    0.000000000000
 H   -4.645106087281   -1.174513518893    0.000000000000
 H   -4.057104087281   -2.817148518893    0.000000000000
 O   -2.369233087281   -0.108306518893    0.000000000000
 H   -0.520861087281   -1.861023518893    0.000000000000
 H   -1.571164087281   -3.011173518893    0.892247000000
 H   -1.571164087281   -3.011173518893   -0.892247000000
 K    3.940693248194    2.144431735072    0.000000000000
