10

 C   -1.528969897796   -2.383536520330    0.000000000000
 C   -2.628268897796   -1.334676520330    0.000000000000
 N   -3.907876897796   -1.838465520330    0.000000000000
 H   -4.682549897796   -1.187881520330    0.000000000000
 H   -4.094547897796   -2.830516520330    0.000000000000
 O   -2.406676897796   -0.121674520330    0.000000000000
 H   -0.558304897796   -1.874391520330    0.000000000000
 H   -1.608607897796   -3.024541520330    0.892247000000
 H   -1.608607897796   -3.024541520330   -0.892247000000
 K    3.997427442686    2.164686692649    0.000000000000
