10

 C   -1.566413708311   -2.396904521767    0.000000000000
 C   -2.665712708311   -1.348044521767    0.000000000000
 N   -3.945320708311   -1.851833521767    0.000000000000
 H   -4.719993708311   -1.201249521767    0.000000000000
 H   -4.131991708311   -2.843884521767    0.000000000000
 O   -2.444120708311   -0.135042521767    0.000000000000
 H   -0.595748708311   -1.887759521767    0.000000000000
 H   -1.646051708311   -3.037909521767    0.892247000000
 H   -1.646051708311   -3.037909521767   -0.892247000000
 K    4.054161637178    2.184941650226    0.000000000000
