10

 C   -1.641301329341   -2.423640524642    0.000000000000
 C   -2.740600329341   -1.374780524642    0.000000000000
 N   -4.020208329341   -1.878569524642    0.000000000000
 H   -4.794881329341   -1.227985524642    0.000000000000
 H   -4.206879329341   -2.870620524642    0.000000000000
 O   -2.519008329341   -0.161778524642    0.000000000000
 H   -0.670636329341   -1.914495524642    0.000000000000
 H   -1.720939329341   -3.064645524642    0.892247000000
 H   -1.720939329341   -3.064645524642   -0.892247000000
 K    4.167630026162    2.225451565380    0.000000000000
