10

 C   -1.716188950372   -2.450376527516    0.000000000000
 C   -2.815487950372   -1.401516527516    0.000000000000
 N   -4.095095950372   -1.905305527516    0.000000000000
 H   -4.869768950372   -1.254721527516    0.000000000000
 H   -4.281766950372   -2.897356527516    0.000000000000
 O   -2.593895950372   -0.188514527516    0.000000000000
 H   -0.745523950372   -1.941231527516    0.000000000000
 H   -1.795826950372   -3.091381527516    0.892247000000
 H   -1.795826950372   -3.091381527516   -0.892247000000
 K    4.281098415146    2.265961480535    0.000000000000
