10

 C   -1.791076571402   -2.477112530391    0.000000000000
 C   -2.890375571402   -1.428252530391    0.000000000000
 N   -4.169983571402   -1.932041530391    0.000000000000
 H   -4.944656571402   -1.281457530391    0.000000000000
 H   -4.356654571402   -2.924092530391    0.000000000000
 O   -2.668783571402   -0.215250530391    0.000000000000
 H   -0.820411571402   -1.967967530391    0.000000000000
 H   -1.870714571402   -3.118117530391    0.892247000000
 H   -1.870714571402   -3.118117530391   -0.892247000000
 K    4.394566804130    2.306471395689    0.000000000000
