10

 C   -1.828520381917   -2.490480531828    0.000000000000
 C   -2.927819381917   -1.441620531828    0.000000000000
 N   -4.207427381917   -1.945409531828    0.000000000000
 H   -4.982100381917   -1.294825531828    0.000000000000
 H   -4.394098381917   -2.937460531828    0.000000000000
 O   -2.706227381917   -0.228618531828    0.000000000000
 H   -0.857855381917   -1.981335531828    0.000000000000
 H   -1.908158381917   -3.131485531828    0.892247000000
 H   -1.908158381917   -3.131485531828   -0.892247000000
 K    4.451300998622    2.326726353266    0.000000000000
