10

 C   -1.865964192432   -2.503848533265    0.000000000000
 C   -2.965263192432   -1.454988533265    0.000000000000
 N   -4.244871192432   -1.958777533265    0.000000000000
 H   -5.019544192432   -1.308193533265    0.000000000000
 H   -4.431542192432   -2.950828533265    0.000000000000
 O   -2.743671192432   -0.241986533265    0.000000000000
 H   -0.895299192432   -1.994703533265    0.000000000000
 H   -1.945602192432   -3.144853533265    0.892247000000
 H   -1.945602192432   -3.144853533265   -0.892247000000
 K    4.508035193114    2.346981310843    0.000000000000
