10

 C   -1.903408002947   -2.517216534702    0.000000000000
 C   -3.002707002947   -1.468356534702    0.000000000000
 N   -4.282315002947   -1.972145534702    0.000000000000
 H   -5.056988002947   -1.321561534702    0.000000000000
 H   -4.468986002947   -2.964196534702    0.000000000000
 O   -2.781115002947   -0.255354534702    0.000000000000
 H   -0.932743002947   -2.008071534702    0.000000000000
 H   -1.983046002947   -3.158221534702    0.892247000000
 H   -1.983046002947   -3.158221534702   -0.892247000000
 K    4.564769387606    2.367236268420    0.000000000000
