10

 C   -2.352733729128   -2.677632551949    0.000000000000
 C   -3.452032729128   -1.628772551949    0.000000000000
 N   -4.731640729128   -2.132561551949    0.000000000000
 H   -5.506313729128   -1.481977551949    0.000000000000
 H   -4.918311729128   -3.124612551949    0.000000000000
 O   -3.230440729128   -0.415770551949    0.000000000000
 H   -1.382068729128   -2.168487551949    0.000000000000
 H   -2.432371729128   -3.318637551949    0.892247000000
 H   -2.432371729128   -3.318637551949   -0.892247000000
 K    5.245579721511    2.610295759346    0.000000000000
