10

 C   -2.577396592219   -2.757840560573    0.000000000000
 C   -3.676695592219   -1.708980560573    0.000000000000
 N   -4.956303592219   -2.212769560573    0.000000000000
 H   -5.730976592219   -1.562185560573    0.000000000000
 H   -5.142974592219   -3.204820560573    0.000000000000
 O   -3.455103592219   -0.495978560573    0.000000000000
 H   -1.606731592219   -2.248695560573    0.000000000000
 H   -2.657034592219   -3.398845560573    0.892247000000
 H   -2.657034592219   -3.398845560573   -0.892247000000
 K    5.585984888463    2.731825504809    0.000000000000
