8

 N    0.333768910816   -0.010305664537    0.739548771195
 H   -0.070880089184    0.808303335463    1.188844771195
 H   -0.070880089184   -0.828914664537    1.188844771195
 C    1.794206910816   -0.010305664537    0.877585771195
 H    2.193309910816   -0.892246664537    0.371196771195
 H    2.162887910816   -0.010305664537    1.913415771195
 H    2.193309910816    0.871635335463    0.371196771195
CS   -0.245754870034    0.002407053182   -0.195325859030
