8

 N    0.504603640930   -0.014053178914    1.015135486396
 H    0.099954640930    0.804555821086    1.464431486396
 H    0.099954640930   -0.832662178914    1.464431486396
 C    1.965041640930   -0.014053178914    1.153172486396
 H    2.364144640930   -0.895994178914    0.646783486396
 H    2.333722640930   -0.014053178914    2.189002486396
 H    2.364144640930    0.867887821086    0.646783486396
CS   -0.285656060229    0.003282345249   -0.259693554820
