8

 N    0.632729688516   -0.016863814697    1.221825522796
 H    0.228080688516    0.801745185303    1.671121522796
 H    0.228080688516   -0.835472814697    1.671121522796
 C    2.093167688516   -0.016863814697    1.359862522796
 H    2.492270688516   -0.898804814697    0.853473522796
 H    2.461848688516   -0.016863814697    2.395692522796
 H    2.492270688516    0.865077185303    0.853473522796
CS   -0.315581952875    0.003938814298   -0.307969326662
