8

 N    4.134841655861   -0.093687859429    6.871353184413
 H    3.730192655861    0.724921140571    7.320649184413
 H    3.730192655861   -0.912296859429    7.320649184413
 C    5.595279655861   -0.093687859429    7.009390184413
 H    5.994382655861   -0.975628859429    6.503001184413
 H    5.963960655861   -0.093687859429    8.045220184413
 H    5.994382655861    0.788253140571    6.503001184413
CS   -1.133556351866    0.021882301658   -1.627507090356
