8

 N    0.718147053573   -0.018737571886    1.359618880397
 H    0.313498053573    0.799871428114    1.808914880397
 H    0.313498053573   -0.837346571886    1.808914880397
 C    2.178585053573   -0.018737571886    1.497655880397
 H    2.577688053573   -0.900678571886    0.991266880397
 H    2.547266053573   -0.018737571886    2.533485880397
 H    2.577688053573    0.863203428114    0.991266880397
CS   -0.335532547972    0.004376460332   -0.340153174557
