8

 N    0.760855736102   -0.019674450480    1.428515559197
 H    0.356206736102    0.798934549520    1.877811559197
 H    0.356206736102   -0.838283450480    1.877811559197
 C    2.221293736102   -0.019674450480    1.566552559197
 H    2.620396736102   -0.901615450480    1.060163559197
 H    2.589974736102   -0.019674450480    2.602382559197
 H    2.620396736102    0.862266549520    1.060163559197
CS   -0.345507845521    0.004595283348   -0.356245098505
