8

 N    0.931690466216   -0.023421964857    1.704102274398
 H    0.527041466216    0.795187035143    2.153398274398
 H    0.527041466216   -0.842030964857    2.153398274398
 C    2.392128466216   -0.023421964857    1.842139274398
 H    2.791231466216   -0.905362964857    1.335750274398
 H    2.760809466216   -0.023421964857    2.877969274398
 H    2.791231466216    0.858519035143    1.335750274398
CS   -0.385409035716    0.005470575414   -0.420612794295
