8

 N    1.401485974031   -0.033727629394    2.461965741200
 H    0.996836974031    0.784881370606    2.911261741200
 H    0.996836974031   -0.852336629394    2.911261741200
 C    2.861923974031   -0.033727629394    2.600002741200
 H    3.261026974031   -0.915668629394    2.093613741200
 H    3.230604974031   -0.033727629394    3.635832741200
 H    3.261026974031    0.848213370606    2.093613741200
CS   -0.495137308751    0.007877628597   -0.597623957717
