8

 N    1.572320704145   -0.037475143772    2.737552456401
 H    1.167671704145    0.781133856228    3.186848456401
 H    1.167671704145   -0.856084143772    3.186848456401
 C    3.032758704145   -0.037475143772    2.875589456401
 H    3.431861704145   -0.919416143772    2.369200456401
 H    3.401439704145   -0.037475143772    3.911419456401
 H    3.431861704145    0.844465856228    2.369200456401
CS   -0.535038498946    0.008752920663   -0.661991653507
