8

 N    2.127533577017   -0.049654565497    3.633209280803
 H    1.722884577017    0.768954434503    4.082505280803
 H    1.722884577017   -0.868263565497    4.082505280803
 C    3.587971577017   -0.049654565497    3.771246280803
 H    3.987074577017   -0.931595565497    3.264857280803
 H    3.956652577017   -0.049654565497    4.807076280803
 H    3.987074577017    0.832286434503    3.264857280803
CS   -0.664717367079    0.011597619879   -0.871186664824
