8

 N    2.298368307131   -0.053402079874    3.908795996004
 H    1.893719307131    0.765206920126    4.358091996004
 H    1.893719307131   -0.872011079874    4.358091996004
 C    3.758806307131   -0.053402079874    4.046832996004
 H    4.157909307131   -0.935343079874    3.540443996004
 H    4.127487307131   -0.053402079874    5.082662996004
 H    4.157909307131    0.828538920126    3.540443996004
CS   -0.704618557273    0.012472911945   -0.935554360614
