8

 N    2.383785672188   -0.055275837063    4.046589353604
 H    1.979136672188    0.763333162937    4.495885353604
 H    1.979136672188   -0.873884837063    4.495885353604
 C    3.844223672188   -0.055275837063    4.184626353604
 H    4.243326672188   -0.937216837063    3.678237353604
 H    4.212904672188   -0.055275837063    5.220456353604
 H    4.243326672188    0.826665162937    3.678237353604
CS   -0.724569152371    0.012910557978   -0.967738208509
