8

 N    2.469203037245   -0.057149594252    4.184382711205
 H    2.064554037245    0.761459405748    4.633678711205
 H    2.064554037245   -0.875758594252    4.633678711205
 C    3.929641037245   -0.057149594252    4.322419711205
 H    4.328744037245   -0.939090594252    3.816030711205
 H    4.298322037245   -0.057149594252    5.358249711205
 H    4.328744037245    0.824791405748    3.816030711205
CS   -0.744519747468    0.013348204011   -0.999922056404
