8

 N    2.597329084831   -0.059960230034    4.391072747605
 H    2.192680084831    0.758648769966    4.840368747605
 H    2.192680084831   -0.878569230034    4.840368747605
 C    4.057767084831   -0.059960230034    4.529109747605
 H    4.456870084831   -0.941901230034    4.022720747605
 H    4.426448084831   -0.059960230034    5.564939747605
 H    4.456870084831    0.821980769966    4.022720747605
CS   -0.774445640114    0.014004673061   -1.048197828247
