8

 N    2.640037767360   -0.060897108629    4.459969426406
 H    2.235388767360    0.757711891371    4.909265426406
 H    2.235388767360   -0.879506108629    4.909265426406
 C    4.100475767360   -0.060897108629    4.598006426406
 H    4.499578767360   -0.942838108629    4.091617426406
 H    4.469156767360   -0.060897108629    5.633836426406
 H    4.499578767360    0.821043891371    4.091617426406
CS   -0.784420937663    0.014223496078   -1.064289752194
