8

 N    2.682746449888   -0.061833987223    4.528866105206
 H    2.278097449888    0.756775012777    4.978162105206
 H    2.278097449888   -0.880442987223    4.978162105206
 C    4.143184449888   -0.061833987223    4.666903105206
 H    4.542287449888   -0.943774987223    4.160514105206
 H    4.511865449888   -0.061833987223    5.702733105206
 H    4.542287449888    0.820107012777    4.160514105206
CS   -0.794396235211    0.014442319094   -1.080381676142
