8

 N    2.810872497474   -0.064644623006    4.735556141606
 H    2.406223497474    0.753964376994    5.184852141606
 H    2.406223497474   -0.883253623006    5.184852141606
 C    4.271310497474   -0.064644623006    4.873593141606
 H    4.670413497474   -0.946585623006    4.367204141606
 H    4.639991497474   -0.064644623006    5.909423141606
 H    4.670413497474    0.817296376994    4.367204141606
CS   -0.824322127858    0.015098788144   -1.128657447984
