8

 N    2.853581180003   -0.065581501600    4.804452820407
 H    2.448932180003    0.753027498400    5.253748820407
 H    2.448932180003   -0.884190501600    5.253748820407
 C    4.314019180003   -0.065581501600    4.942489820407
 H    4.713122180003   -0.947522501600    4.436100820407
 H    4.682700180003   -0.065581501600    5.978319820407
 H    4.713122180003    0.816359498400    4.436100820407
CS   -0.834297425406    0.015317611161   -1.144749371931
