8

 N    3.109833275174   -0.071202773166    5.217832893208
 H    2.705184275174    0.747406226834    5.667128893208
 H    2.705184275174   -0.889811773166    5.667128893208
 C    4.570271275174   -0.071202773166    5.355869893208
 H    4.969374275174   -0.953143773166    4.849480893208
 H    4.938952275174   -0.071202773166    6.391699893208
 H    4.969374275174    0.810738226834    4.849480893208
CS   -0.894149210698    0.016630549260   -1.241300915616
