8

 N    3.152541957703   -0.072139651760    5.286729572008
 H    2.747892957703    0.746469348240    5.736025572008
 H    2.747892957703   -0.890748651760    5.736025572008
 C    4.612979957703   -0.072139651760    5.424766572008
 H    5.012082957703   -0.954080651760    4.918377572008
 H    4.981660957703   -0.072139651760    6.460596572008
 H    5.012082957703    0.809801348240    4.918377572008
CS   -0.904124508247    0.016849372277   -1.257392839564
