8

 N    3.408794052875   -0.077760923326    5.700109644809
 H    3.004145052875    0.740848076674    6.149405644809
 H    3.004145052875   -0.896369923326    6.149405644809
 C    4.869232052875   -0.077760923326    5.838146644809
 H    5.268335052875   -0.959701923326    5.331757644809
 H    5.237913052875   -0.077760923326    6.873976644809
 H    5.268335052875    0.804180076674    5.331757644809
CS   -0.963976293539    0.018162310376   -1.353944383249
