8

 N    3.494211417932   -0.079634680515    5.837903002410
 H    3.089562417932    0.738974319485    6.287199002410
 H    3.089562417932   -0.898243680515    6.287199002410
 C    4.954649417932   -0.079634680515    5.975940002410
 H    5.353752417932   -0.961575680515    5.469551002410
 H    5.323330417932   -0.079634680515    7.011770002410
 H    5.353752417932    0.802306319485    5.469551002410
CS   -0.983926888636    0.018599956409   -1.386128231144
