8

 N    3.579628782989   -0.081508437703    5.975696360010
 H    3.174979782989    0.737100562297    6.424992360010
 H    3.174979782989   -0.900117437703    6.424992360010
 C    5.040066782989   -0.081508437703    6.113733360010
 H    5.439169782989   -0.963449437703    5.607344360010
 H    5.408747782989   -0.081508437703    7.149563360010
 H    5.439169782989    0.800432562297    5.607344360010
CS   -1.003877483734    0.019037602442   -1.418312079039
