8

 N    3.707754830575   -0.084319073486    6.182386396411
 H    3.303105830575    0.734289926514    6.631682396411
 H    3.303105830575   -0.902928073486    6.631682396411
 C    5.168192830575   -0.084319073486    6.320423396411
 H    5.567295830575   -0.966260073486    5.814034396411
 H    5.536873830575   -0.084319073486    7.356253396411
 H    5.567295830575    0.797621926514    5.814034396411
CS   -1.033803376380    0.019694071492   -1.466587850881
