8

 N    3.750463513103   -0.085255952080    6.251283075211
 H    3.345814513103    0.733353047920    6.700579075211
 H    3.345814513103   -0.903864952080    6.700579075211
 C    5.210901513103   -0.085255952080    6.389320075211
 H    5.610004513103   -0.967196952080    5.882931075211
 H    5.579582513103   -0.085255952080    7.425150075211
 H    5.610004513103    0.796685047920    5.882931075211
CS   -1.043778673928    0.019912894509   -1.482679774829
