8

 N    3.921298243218   -0.089003466457    6.526869790412
 H    3.516649243218    0.729605533543    6.976165790412
 H    3.516649243218   -0.907612466457    6.976165790412
 C    5.381736243218   -0.089003466457    6.664906790412
 H    5.780839243218   -0.970944466457    6.158517790412
 H    5.750417243218   -0.089003466457    7.700736790412
 H    5.780839243218    0.792937533543    6.158517790412
CS   -1.083679864123    0.020788186575   -1.547047470619
