8

 N    4.049424290803   -0.091814102240    6.733559826812
 H    3.644775290803    0.726794897760    7.182855826812
 H    3.644775290803   -0.910423102240    7.182855826812
 C    5.509862290803   -0.091814102240    6.871596826812
 H    5.908965290803   -0.973755102240    6.365207826812
 H    5.878543290803   -0.091814102240    7.907426826812
 H    5.908965290803    0.790126897760    6.365207826812
CS   -1.113605756769    0.021444655625   -1.595323242461
