25

 C    0.228278875871    2.541376721151    0.000000000000
 H    0.504198875871    3.603746721151    0.000000000000
 H    0.665388875871    2.087256721151    0.903550000000
 H    0.665388875871    2.087256721151   -0.903550000000
 C   -1.288431124129    2.402876721151    0.000000000000
 H   -1.719261124129    2.877066721151   -0.897690000000
 H   -1.719261124129    2.877066721151    0.897690000000
 O   -1.627361124129    1.002756721151    0.000000000000
 C   -3.050801124129    0.811546721151    0.000000000000
 H   -3.494121124129    1.260556721151   -0.902100000000
 H   -3.494121124129    1.260556721151    0.902100000000
 H   -3.232981124129   -0.269623278849    0.000000000000
 K    0.470658875871   -0.290013278849    0.000000000000
 O    1.322012619961   -0.814605313123    0.000000000000
 C    2.745446973348   -0.623392002923    0.000000000000
 H    3.188773654798   -1.072404821669    0.902100724152
 H    3.188773654798   -1.072404821669   -0.902100724152
 H    2.927631807968    0.457785828164    0.000000000000
 C    0.983085119374   -2.214727187442    0.000000000000
 H    1.413913616543   -2.688913744442    0.897682624755
 H    1.413913616543   -2.688913744442   -0.897682624755
 C   -0.533635004434   -2.353220678029    0.000000000000
 H   -0.809555549892   -3.415594207911    0.000000000000
 H   -0.970741223023   -1.899106830815   -0.903546100838
 H   -0.970741223023   -1.899106830815    0.903546100838
