25

 C    0.163996003930    2.580986909976    0.000000000000
 H    0.439916003930    3.643356909976    0.000000000000
 H    0.601106003930    2.126866909976    0.903550000000
 H    0.601106003930    2.126866909976   -0.903550000000
 C   -1.352713996070    2.442486909976    0.000000000000
 H   -1.783543996070    2.916676909976   -0.897690000000
 H   -1.783543996070    2.916676909976    0.897690000000
 O   -1.691643996070    1.042366909976    0.000000000000
 C   -3.115083996070    0.851156909976    0.000000000000
 H   -3.558403996070    1.300166909976   -0.902100000000
 H   -3.558403996070    1.300166909976    0.902100000000
 H   -3.297263996070   -0.230013090024    0.000000000000
 K    0.406376003930   -0.250403090024    0.000000000000
 O    1.428000496838   -0.879913531153    0.000000000000
 C    2.851434850225   -0.688700220953    0.000000000000
 H    3.294761531675   -1.137713039699    0.902100724152
 H    3.294761531675   -1.137713039699   -0.902100724152
 H    3.033619684845    0.392477610134    0.000000000000
 C    1.089072996251   -2.280035405471    0.000000000000
 H    1.519901493420   -2.754221962472    0.897682624755
 H    1.519901493420   -2.754221962472   -0.897682624755
 C   -0.427647127557   -2.418528896059    0.000000000000
 H   -0.703567673015   -3.480902425941    0.000000000000
 H   -0.864753346146   -1.964415048845   -0.903546100838
 H   -0.864753346146   -1.964415048845    0.903546100838
