25

 C   -0.060994047864    2.719622570864    0.000000000000
 H    0.214925952136    3.781992570864    0.000000000000
 H    0.376115952136    2.265502570864    0.903550000000
 H    0.376115952136    2.265502570864   -0.903550000000
 C   -1.577704047864    2.581122570864    0.000000000000
 H   -2.008534047864    3.055312570864   -0.897690000000
 H   -2.008534047864    3.055312570864    0.897690000000
 O   -1.916634047864    1.181002570864    0.000000000000
 C   -3.340074047864    0.989792570864    0.000000000000
 H   -3.783394047864    1.438802570864   -0.902100000000
 H   -3.783394047864    1.438802570864    0.902100000000
 H   -3.522254047864   -0.091377429136    0.000000000000
 K    0.181385952136   -0.111767429136    0.000000000000
 O    1.798958065908   -1.108492294256    0.000000000000
 C    3.222392419295   -0.917278984056    0.000000000000
 H    3.665719100745   -1.366291802802    0.902100724152
 H    3.665719100745   -1.366291802802   -0.902100724152
 H    3.404577253915    0.163898847031    0.000000000000
 C    1.460030565321   -2.508614168575    0.000000000000
 H    1.890859062490   -2.982800725575    0.897682624755
 H    1.890859062490   -2.982800725575   -0.897682624755
 C   -0.056689558488   -2.647107659162    0.000000000000
 H   -0.332610103946   -3.709481189044    0.000000000000
 H   -0.493795777077   -2.192993811948   -0.903546100838
 H   -0.493795777077   -2.192993811948    0.903546100838
