25

 C   -0.093135483834    2.739427665277    0.000000000000
 H    0.182784516166    3.801797665277    0.000000000000
 H    0.343974516166    2.285307665277    0.903550000000
 H    0.343974516166    2.285307665277   -0.903550000000
 C   -1.609845483834    2.600927665277    0.000000000000
 H   -2.040675483834    3.075117665277   -0.897690000000
 H   -2.040675483834    3.075117665277    0.897690000000
 O   -1.948775483834    1.200807665277    0.000000000000
 C   -3.372215483834    1.009597665277    0.000000000000
 H   -3.815535483834    1.458607665277   -0.902100000000
 H   -3.815535483834    1.458607665277    0.902100000000
 H   -3.554395483834   -0.071572334723    0.000000000000
 K    0.149244516166   -0.091962334723    0.000000000000
 O    1.851952004346   -1.141146403271    0.000000000000
 C    3.275386357733   -0.949933093071    0.000000000000
 H    3.718713039183   -1.398945911817    0.902100724152
 H    3.718713039183   -1.398945911817   -0.902100724152
 H    3.457571192353    0.131244738016    0.000000000000
 C    1.513024503759   -2.541268277590    0.000000000000
 H    1.943853000929   -3.015454834590    0.897682624755
 H    1.943853000929   -3.015454834590   -0.897682624755
 C   -0.003695620049   -2.679761768177    0.000000000000
 H   -0.279616165507   -3.742135298059    0.000000000000
 H   -0.440801838638   -2.225647920963   -0.903546100838
 H   -0.440801838638   -2.225647920963    0.903546100838
