25

 C   -0.285984099657    2.858258231753    0.000000000000
 H   -0.010064099657    3.920628231753    0.000000000000
 H    0.151125900343    2.404138231753    0.903550000000
 H    0.151125900343    2.404138231753   -0.903550000000
 C   -1.802694099657    2.719758231753    0.000000000000
 H   -2.233524099657    3.193948231753   -0.897690000000
 H   -2.233524099657    3.193948231753    0.897690000000
 O   -2.141624099657    1.319638231753    0.000000000000
 C   -3.565064099657    1.128428231753    0.000000000000
 H   -4.008384099657    1.577438231753   -0.902100000000
 H   -4.008384099657    1.577438231753    0.902100000000
 H   -3.747244099657    0.047258231753    0.000000000000
 K   -0.043604099657    0.026868231753    0.000000000000
 O    2.169915634977   -1.337071057359    0.000000000000
 C    3.593349988364   -1.145857747160    0.000000000000
 H    4.036676669814   -1.594870565906    0.902100724152
 H    4.036676669814   -1.594870565906   -0.902100724152
 H    3.775534822984   -0.064679916072    0.000000000000
 C    1.830988134390   -2.737192931678    0.000000000000
 H    2.261816631560   -3.211379488679    0.897682624755
 H    2.261816631560   -3.211379488679   -0.897682624755
 C    0.314268010582   -2.875686422265    0.000000000000
 H    0.038347465124   -3.938059952148    0.000000000000
 H   -0.122838208007   -2.421572575051   -0.903546100838
 H   -0.122838208007   -2.421572575051    0.903546100838
