25

 C   -0.318125535628    2.878063326165    0.000000000000
 H   -0.042205535628    3.940433326165    0.000000000000
 H    0.118984464372    2.423943326165    0.903550000000
 H    0.118984464372    2.423943326165   -0.903550000000
 C   -1.834835535628    2.739563326165    0.000000000000
 H   -2.265665535628    3.213753326165   -0.897690000000
 H   -2.265665535628    3.213753326165    0.897690000000
 O   -2.173765535628    1.339443326165    0.000000000000
 C   -3.597205535628    1.148233326165    0.000000000000
 H   -4.040525535628    1.597243326165   -0.902100000000
 H   -4.040525535628    1.597243326165    0.902100000000
 H   -3.779385535628    0.067063326165    0.000000000000
 K   -0.075745535628    0.046673326165    0.000000000000
 O    2.222909573416   -1.369725166374    0.000000000000
 C    3.646343926803   -1.178511856174    0.000000000000
 H    4.089670608253   -1.627524674920    0.902100724152
 H    4.089670608253   -1.627524674920   -0.902100724152
 H    3.828528761423   -0.097334025087    0.000000000000
 C    1.883982072829   -2.769847040693    0.000000000000
 H    2.314810569998   -3.244033597693    0.897682624755
 H    2.314810569998   -3.244033597693   -0.897682624755
 C    0.367261949021   -2.908340531280    0.000000000000
 H    0.091341403563   -3.970714061162    0.000000000000
 H   -0.069844269568   -2.454226684066   -0.903546100838
 H   -0.069844269568   -2.454226684066    0.903546100838
