25

 C   -0.350266971598    2.897868420578    0.000000000000
 H   -0.074346971598    3.960238420578    0.000000000000
 H    0.086843028402    2.443748420578    0.903550000000
 H    0.086843028402    2.443748420578   -0.903550000000
 C   -1.866976971598    2.759368420578    0.000000000000
 H   -2.297806971598    3.233558420578   -0.897690000000
 H   -2.297806971598    3.233558420578    0.897690000000
 O   -2.205906971598    1.359248420578    0.000000000000
 C   -3.629346971598    1.168038420578    0.000000000000
 H   -4.072666971598    1.617048420578   -0.902100000000
 H   -4.072666971598    1.617048420578    0.902100000000
 H   -3.811526971598    0.086868420578    0.000000000000
 K   -0.107886971598    0.066478420578    0.000000000000
 O    2.275903511854   -1.402379275389    0.000000000000
 C    3.699337865241   -1.211165965189    0.000000000000
 H    4.142664546691   -1.660178783935    0.902100724152
 H    4.142664546691   -1.660178783935   -0.902100724152
 H    3.881522699862   -0.129988134102    0.000000000000
 C    1.936976011267   -2.802501149708    0.000000000000
 H    2.367804508437   -3.276687706708    0.897682624755
 H    2.367804508437   -3.276687706708   -0.897682624755
 C    0.420255887459   -2.940994640295    0.000000000000
 H    0.144335342001   -4.003368170177    0.000000000000
 H   -0.016850331130   -2.486880793081   -0.903546100838
 H   -0.016850331130   -2.486880793081    0.903546100838
