25

 C   -0.382408407569    2.917673514991    0.000000000000
 H   -0.106488407569    3.980043514991    0.000000000000
 H    0.054701592431    2.463553514991    0.903550000000
 H    0.054701592431    2.463553514991   -0.903550000000
 C   -1.899118407569    2.779173514991    0.000000000000
 H   -2.329948407569    3.253363514991   -0.897690000000
 H   -2.329948407569    3.253363514991    0.897690000000
 O   -2.238048407569    1.379053514991    0.000000000000
 C   -3.661488407569    1.187843514991    0.000000000000
 H   -4.104808407569    1.636853514991   -0.902100000000
 H   -4.104808407569    1.636853514991    0.902100000000
 H   -3.843668407569    0.106673514991    0.000000000000
 K   -0.140028407569    0.086283514991    0.000000000000
 O    2.328897450293   -1.435033384404    0.000000000000
 C    3.752331803680   -1.243820074204    0.000000000000
 H    4.195658485130   -1.692832892950    0.902100724152
 H    4.195658485130   -1.692832892950   -0.902100724152
 H    3.934516638300   -0.162642243117    0.000000000000
 C    1.989969949706   -2.835155258723    0.000000000000
 H    2.420798446875   -3.309341815723    0.897682624755
 H    2.420798446875   -3.309341815723   -0.897682624755
 C    0.473249825898   -2.973648749310    0.000000000000
 H    0.197329280440   -4.036022279192    0.000000000000
 H    0.036143607309   -2.519534902096   -0.903546100838
 H    0.036143607309   -2.519534902096    0.903546100838
