25

 C   -0.414549843539    2.937478609403    0.000000000000
 H   -0.138629843539    3.999848609403    0.000000000000
 H    0.022560156461    2.483358609403    0.903550000000
 H    0.022560156461    2.483358609403   -0.903550000000
 C   -1.931259843539    2.798978609403    0.000000000000
 H   -2.362089843539    3.273168609403   -0.897690000000
 H   -2.362089843539    3.273168609403    0.897690000000
 O   -2.270189843539    1.398858609403    0.000000000000
 C   -3.693629843539    1.207648609403    0.000000000000
 H   -4.136949843539    1.656658609403   -0.902100000000
 H   -4.136949843539    1.656658609403    0.902100000000
 H   -3.875809843539    0.126478609403    0.000000000000
 K   -0.172169843539    0.106088609403    0.000000000000
 O    2.381891388731   -1.467687493419    0.000000000000
 C    3.805325742118   -1.276474183219    0.000000000000
 H    4.248652423568   -1.725487001965    0.902100724152
 H    4.248652423568   -1.725487001965   -0.902100724152
 H    3.987510576739   -0.195296352132    0.000000000000
 C    2.042963888145   -2.867809367737    0.000000000000
 H    2.473792385314   -3.341995924738    0.897682624755
 H    2.473792385314   -3.341995924738   -0.897682624755
 C    0.526243764336   -3.006302858325    0.000000000000
 H    0.250323218878   -4.068676388207    0.000000000000
 H    0.089137545747   -2.552189011111   -0.903546100838
 H    0.089137545747   -2.552189011111    0.903546100838
