25

 C   -0.446691279510    2.957283703816    0.000000000000
 H   -0.170771279510    4.019653703816    0.000000000000
 H   -0.009581279510    2.503163703816    0.903550000000
 H   -0.009581279510    2.503163703816   -0.903550000000
 C   -1.963401279510    2.818783703816    0.000000000000
 H   -2.394231279510    3.292973703816   -0.897690000000
 H   -2.394231279510    3.292973703816    0.897690000000
 O   -2.302331279510    1.418663703816    0.000000000000
 C   -3.725771279510    1.227453703816    0.000000000000
 H   -4.169091279510    1.676463703816   -0.902100000000
 H   -4.169091279510    1.676463703816    0.902100000000
 H   -3.907951279510    0.146283703816    0.000000000000
 K   -0.204311279510    0.125893703816    0.000000000000
 O    2.434885327170   -1.500341602433    0.000000000000
 C    3.858319680557   -1.309128292234    0.000000000000
 H    4.301646362007   -1.758141110980    0.902100724152
 H    4.301646362007   -1.758141110980   -0.902100724152
 H    4.040504515177   -0.227950461146    0.000000000000
 C    2.095957826583   -2.900463476752    0.000000000000
 H    2.526786323752   -3.374650033752    0.897682624755
 H    2.526786323752   -3.374650033752   -0.897682624755
 C    0.579237702775   -3.038956967339    0.000000000000
 H    0.303317157317   -4.101330497221    0.000000000000
 H    0.142131484186   -2.584843120125   -0.903546100838
 H    0.142131484186   -2.584843120125    0.903546100838
