25

 C   -0.510974151451    2.996893892641    0.000000000000
 H   -0.235054151451    4.059263892641    0.000000000000
 H   -0.073864151451    2.542773892641    0.903550000000
 H   -0.073864151451    2.542773892641   -0.903550000000
 C   -2.027684151451    2.858393892641    0.000000000000
 H   -2.458514151451    3.332583892641   -0.897690000000
 H   -2.458514151451    3.332583892641    0.897690000000
 O   -2.366614151451    1.458273892641    0.000000000000
 C   -3.790054151451    1.267063892641    0.000000000000
 H   -4.233374151451    1.716073892641   -0.902100000000
 H   -4.233374151451    1.716073892641    0.902100000000
 H   -3.972234151451    0.185893892641    0.000000000000
 K   -0.268594151451    0.165503892641    0.000000000000
 O    2.540873204047   -1.565649820463    0.000000000000
 C    3.964307557434   -1.374436510263    0.000000000000
 H    4.407634238884   -1.823449329009    0.902100724152
 H    4.407634238884   -1.823449329009   -0.902100724152
 H    4.146492392054   -0.293258679176    0.000000000000
 C    2.201945703460   -2.965771694782    0.000000000000
 H    2.632774200629   -3.439958251782    0.897682624755
 H    2.632774200629   -3.439958251782   -0.897682624755
 C    0.685225579652   -3.104265185369    0.000000000000
 H    0.409305034194   -4.166638715251    0.000000000000
 H    0.248119361063   -2.650151338155   -0.903546100838
 H    0.248119361063   -2.650151338155    0.903546100838
