25

 C   -0.543115587421    3.016698987054    0.000000000000
 H   -0.267195587421    4.079068987054    0.000000000000
 H   -0.106005587421    2.562578987054    0.903550000000
 H   -0.106005587421    2.562578987054   -0.903550000000
 C   -2.059825587421    2.878198987054    0.000000000000
 H   -2.490655587421    3.352388987054   -0.897690000000
 H   -2.490655587421    3.352388987054    0.897690000000
 O   -2.398755587421    1.478078987054    0.000000000000
 C   -3.822195587421    1.286868987054    0.000000000000
 H   -4.265515587421    1.735878987054   -0.902100000000
 H   -4.265515587421    1.735878987054    0.902100000000
 H   -4.004375587421    0.205698987054    0.000000000000
 K   -0.300735587421    0.185308987054    0.000000000000
 O    2.593867142485   -1.598303929478    0.000000000000
 C    4.017301495873   -1.407090619278    0.000000000000
 H    4.460628177323   -1.856103438024    0.902100724152
 H    4.460628177323   -1.856103438024   -0.902100724152
 H    4.199486330493   -0.325912788191    0.000000000000
 C    2.254939641899   -2.998425803796    0.000000000000
 H    2.685768139068   -3.472612360797    0.897682624755
 H    2.685768139068   -3.472612360797   -0.897682624755
 C    0.738219518090   -3.136919294384    0.000000000000
 H    0.462298972632   -4.199292824266    0.000000000000
 H    0.301113299501   -2.682805447170   -0.903546100838
 H    0.301113299501   -2.682805447170    0.903546100838
