25

 C   -0.703822767273    3.115724459117    0.000000000000
 H   -0.427902767273    4.178094459117    0.000000000000
 H   -0.266712767273    2.661604459117    0.903550000000
 H   -0.266712767273    2.661604459117   -0.903550000000
 C   -2.220532767273    2.977224459117    0.000000000000
 H   -2.651362767273    3.451414459117   -0.897690000000
 H   -2.651362767273    3.451414459117    0.897690000000
 O   -2.559462767273    1.577104459117    0.000000000000
 C   -3.982902767273    1.385894459117    0.000000000000
 H   -4.426222767273    1.834904459117   -0.902100000000
 H   -4.426222767273    1.834904459117    0.902100000000
 H   -4.165082767273    0.304724459117    0.000000000000
 K   -0.461442767273    0.284334459117    0.000000000000
 O    2.858836834678   -1.761574474552    0.000000000000
 C    4.282271188065   -1.570361164352    0.000000000000
 H    4.725597869515   -2.019373983098    0.902100724152
 H    4.725597869515   -2.019373983098   -0.902100724152
 H    4.464456022685   -0.489183333265    0.000000000000
 C    2.519909334091   -3.161696348870    0.000000000000
 H    2.950737831261   -3.635882905871    0.897682624755
 H    2.950737831261   -3.635882905871   -0.897682624755
 C    1.003189210283   -3.300189839458    0.000000000000
 H    0.727268664825   -4.362563369340    0.000000000000
 H    0.566082991694   -2.846075992244   -0.903546100838
 H    0.566082991694   -2.846075992244    0.903546100838
