25

 C   -0.960954255037    3.274165214418    0.000000000000
 H   -0.685034255037    4.336535214418    0.000000000000
 H   -0.523844255037    2.820045214418    0.903550000000
 H   -0.523844255037    2.820045214418   -0.903550000000
 C   -2.477664255037    3.135665214418    0.000000000000
 H   -2.908494255037    3.609855214418   -0.897690000000
 H   -2.908494255037    3.609855214418    0.897690000000
 O   -2.816594255037    1.735545214418    0.000000000000
 C   -4.240034255037    1.544335214418    0.000000000000
 H   -4.683354255037    1.993345214418   -0.902100000000
 H   -4.683354255037    1.993345214418    0.902100000000
 H   -4.422214255037    0.463165214418    0.000000000000
 K   -0.718574255037    0.442775214418    0.000000000000
 O    3.282788342186   -2.022807346670    0.000000000000
 C    4.706222695573   -1.831594036470    0.000000000000
 H    5.149549377023   -2.280606855216    0.902100724152
 H    5.149549377023   -2.280606855216   -0.902100724152
 H    4.888407530194   -0.750416205383    0.000000000000
 C    2.943860841600   -3.422929220989    0.000000000000
 H    3.374689338769   -3.897115777989    0.897682624755
 H    3.374689338769   -3.897115777989   -0.897682624755
 C    1.427140717791   -3.561422711576    0.000000000000
 H    1.151220172333   -4.623796241458    0.000000000000
 H    0.990034499202   -3.107308864362   -0.903546100838
 H    0.990034499202   -3.107308864362    0.903546100838
