25

 C   -1.025237126978    3.313775403243    0.000000000000
 H   -0.749317126978    4.376145403243    0.000000000000
 H   -0.588127126978    2.859655403243    0.903550000000
 H   -0.588127126978    2.859655403243   -0.903550000000
 C   -2.541947126978    3.175275403243    0.000000000000
 H   -2.972777126978    3.649465403243   -0.897690000000
 H   -2.972777126978    3.649465403243    0.897690000000
 O   -2.880877126978    1.775155403243    0.000000000000
 C   -4.304317126978    1.583945403243    0.000000000000
 H   -4.747637126978    2.032955403243   -0.902100000000
 H   -4.747637126978    2.032955403243    0.902100000000
 H   -4.486497126978    0.502775403243    0.000000000000
 K   -0.782857126978    0.482385403243    0.000000000000
 O    3.388776219063   -2.088115564699    0.000000000000
 C    4.812210572450   -1.896902254499    0.000000000000
 H    5.255537253900   -2.345915073245    0.902100724152
 H    5.255537253900   -2.345915073245   -0.902100724152
 H    4.994395407071   -0.815724423412    0.000000000000
 C    3.049848718477   -3.488237439018    0.000000000000
 H    3.480677215646   -3.962423996018    0.897682624755
 H    3.480677215646   -3.962423996018   -0.897682624755
 C    1.533128594668   -3.626730929605    0.000000000000
 H    1.257208049210   -4.689104459487    0.000000000000
 H    1.096022376079   -3.172617082391   -0.903546100838
 H    1.096022376079   -3.172617082391    0.903546100838
