25

 C   -1.089519998919    3.353385592068    0.000000000000
 H   -0.813599998919    4.415755592068    0.000000000000
 H   -0.652409998919    2.899265592068    0.903550000000
 H   -0.652409998919    2.899265592068   -0.903550000000
 C   -2.606229998919    3.214885592068    0.000000000000
 H   -3.037059998919    3.689075592068   -0.897690000000
 H   -3.037059998919    3.689075592068    0.897690000000
 O   -2.945159998919    1.814765592068    0.000000000000
 C   -4.368599998919    1.623555592068    0.000000000000
 H   -4.811919998919    2.072565592068   -0.902100000000
 H   -4.811919998919    2.072565592068    0.902100000000
 H   -4.550779998919    0.542385592068    0.000000000000
 K   -0.847139998919    0.521995592068    0.000000000000
 O    3.494764095940   -2.153423782729    0.000000000000
 C    4.918198449327   -1.962210472529    0.000000000000
 H    5.361525130778   -2.411223291275    0.902100724152
 H    5.361525130778   -2.411223291275   -0.902100724152
 H    5.100383283948   -0.881032641442    0.000000000000
 C    3.155836595354   -3.553545657048    0.000000000000
 H    3.586665092523   -4.027732214048    0.897682624755
 H    3.586665092523   -4.027732214048   -0.897682624755
 C    1.639116471545   -3.692039147635    0.000000000000
 H    1.363195926087   -4.754412677517    0.000000000000
 H    1.202010252956   -3.237925300421   -0.903546100838
 H    1.202010252956   -3.237925300421    0.903546100838
