25

 C   -1.218085742801    3.432605969719    0.000000000000
 H   -0.942165742801    4.494975969719    0.000000000000
 H   -0.780975742801    2.978485969719    0.903550000000
 H   -0.780975742801    2.978485969719   -0.903550000000
 C   -2.734795742801    3.294105969719    0.000000000000
 H   -3.165625742801    3.768295969719   -0.897690000000
 H   -3.165625742801    3.768295969719    0.897690000000
 O   -3.073725742801    1.893985969719    0.000000000000
 C   -4.497165742801    1.702775969719    0.000000000000
 H   -4.940485742801    2.151785969719   -0.902100000000
 H   -4.940485742801    2.151785969719    0.902100000000
 H   -4.679345742801    0.621605969719    0.000000000000
 K   -0.975705742801    0.601215969719    0.000000000000
 O    3.706739849695   -2.284040218788    0.000000000000
 C    5.130174203082   -2.092826908588    0.000000000000
 H    5.573500884532   -2.541839727334    0.902100724152
 H    5.573500884532   -2.541839727334   -0.902100724152
 H    5.312359037702   -1.011649077501    0.000000000000
 C    3.367812349108   -3.684162093107    0.000000000000
 H    3.798640846277   -4.158348650107    0.897682624755
 H    3.798640846277   -4.158348650107   -0.897682624755
 C    1.851092225299   -3.822655583694    0.000000000000
 H    1.575171679841   -4.885029113576    0.000000000000
 H    1.413986006710   -3.368541736480   -0.903546100838
 H    1.413986006710   -3.368541736480    0.903546100838
