25

 C   -1.250227178772    3.452411064131    0.000000000000
 H   -0.974307178772    4.514781064131    0.000000000000
 H   -0.813117178772    2.998291064131    0.903550000000
 H   -0.813117178772    2.998291064131   -0.903550000000
 C   -2.766937178772    3.313911064131    0.000000000000
 H   -3.197767178772    3.788101064131   -0.897690000000
 H   -3.197767178772    3.788101064131    0.897690000000
 O   -3.105867178772    1.913791064131    0.000000000000
 C   -4.529307178772    1.722581064131    0.000000000000
 H   -4.972627178772    2.171591064131   -0.902100000000
 H   -4.972627178772    2.171591064131    0.902100000000
 H   -4.711487178772    0.641411064131    0.000000000000
 K   -1.007847178772    0.621021064131    0.000000000000
 O    3.759733788133   -2.316694327803    0.000000000000
 C    5.183168141520   -2.125481017603    0.000000000000
 H    5.626494822970   -2.574493836349    0.902100724152
 H    5.626494822970   -2.574493836349   -0.902100724152
 H    5.365352976140   -1.044303186516    0.000000000000
 C    3.420806287546   -3.716816202121    0.000000000000
 H    3.851634784716   -4.191002759122    0.897682624755
 H    3.851634784716   -4.191002759122   -0.897682624755
 C    1.904086163738   -3.855309692709    0.000000000000
 H    1.628165618280   -4.917683222591    0.000000000000
 H    1.466979945149   -3.401195845495   -0.903546100838
 H    1.466979945149   -3.401195845495    0.903546100838
