25

 C   -1.314510050713    3.492021252957    0.000000000000
 H   -1.038590050713    4.554391252957    0.000000000000
 H   -0.877400050713    3.037901252957    0.903550000000
 H   -0.877400050713    3.037901252957   -0.903550000000
 C   -2.831220050713    3.353521252957    0.000000000000
 H   -3.262050050713    3.827711252957   -0.897690000000
 H   -3.262050050713    3.827711252957    0.897690000000
 O   -3.170150050713    1.953401252957    0.000000000000
 C   -4.593590050713    1.762191252957    0.000000000000
 H   -5.036910050713    2.211201252957   -0.902100000000
 H   -5.036910050713    2.211201252957    0.902100000000
 H   -4.775770050713    0.681021252957    0.000000000000
 K   -1.072130050713    0.660631252957    0.000000000000
 O    3.865721665010   -2.382002545832    0.000000000000
 C    5.289156018397   -2.190789235632    0.000000000000
 H    5.732482699847   -2.639802054378    0.902100724152
 H    5.732482699847   -2.639802054378   -0.902100724152
 H    5.471340853017   -1.109611404545    0.000000000000
 C    3.526794164423   -3.782124420151    0.000000000000
 H    3.957622661593   -4.256310977151    0.897682624755
 H    3.957622661593   -4.256310977151   -0.897682624755
 C    2.010074040615   -3.920617910738    0.000000000000
 H    1.734153495157   -4.982991440620    0.000000000000
 H    1.572967822026   -3.466504063524   -0.903546100838
 H    1.572967822026   -3.466504063524    0.903546100838
