25

 C   -1.346651486683    3.511826347369    0.000000000000
 H   -1.070731486683    4.574196347369    0.000000000000
 H   -0.909541486683    3.057706347369    0.903550000000
 H   -0.909541486683    3.057706347369   -0.903550000000
 C   -2.863361486683    3.373326347369    0.000000000000
 H   -3.294191486683    3.847516347369   -0.897690000000
 H   -3.294191486683    3.847516347369    0.897690000000
 O   -3.202291486683    1.973206347369    0.000000000000
 C   -4.625731486683    1.781996347369    0.000000000000
 H   -5.069051486683    2.231006347369   -0.902100000000
 H   -5.069051486683    2.231006347369    0.902100000000
 H   -4.807911486683    0.700826347369    0.000000000000
 K   -1.104271486683    0.680436347369    0.000000000000
 O    3.918715603449   -2.414656654847    0.000000000000
 C    5.342149956836   -2.223443344647    0.000000000000
 H    5.785476638286   -2.672456163393    0.902100724152
 H    5.785476638286   -2.672456163393   -0.902100724152
 H    5.524334791456   -1.142265513560    0.000000000000
 C    3.579788102862   -3.814778529166    0.000000000000
 H    4.010616600031   -4.288965086166    0.897682624755
 H    4.010616600031   -4.288965086166   -0.897682624755
 C    2.063067979054   -3.953272019753    0.000000000000
 H    1.787147433596   -5.015645549635    0.000000000000
 H    1.625961760464   -3.499158172539   -0.903546100838
 H    1.625961760464   -3.499158172539    0.903546100838
