25

 C   -1.410934358624    3.551436536195    0.000000000000
 H   -1.135014358624    4.613806536195    0.000000000000
 H   -0.973824358624    3.097316536195    0.903550000000
 H   -0.973824358624    3.097316536195   -0.903550000000
 C   -2.927644358624    3.412936536195    0.000000000000
 H   -3.358474358624    3.887126536195   -0.897690000000
 H   -3.358474358624    3.887126536195    0.897690000000
 O   -3.266574358624    2.012816536195    0.000000000000
 C   -4.690014358624    1.821606536195    0.000000000000
 H   -5.133334358624    2.270616536195   -0.902100000000
 H   -5.133334358624    2.270616536195    0.902100000000
 H   -4.872194358624    0.740436536195    0.000000000000
 K   -1.168554358624    0.720046536195    0.000000000000
 O    4.024703480326   -2.479964872877    0.000000000000
 C    5.448137833713   -2.288751562677    0.000000000000
 H    5.891464515163   -2.737764381423    0.902100724152
 H    5.891464515163   -2.737764381423   -0.902100724152
 H    5.630322668333   -1.207573731590    0.000000000000
 C    3.685775979739   -3.880086747195    0.000000000000
 H    4.116604476908   -4.354273304196    0.897682624755
 H    4.116604476908   -4.354273304196   -0.897682624755
 C    2.169055855931   -4.018580237783    0.000000000000
 H    1.893135310473   -5.080953767665    0.000000000000
 H    1.731949637342   -3.564466390569   -0.903546100838
 H    1.731949637342   -3.564466390569    0.903546100838
