25

 C   -1.443075794595    3.571241630607    0.000000000000
 H   -1.167155794595    4.633611630607    0.000000000000
 H   -1.005965794595    3.117121630607    0.903550000000
 H   -1.005965794595    3.117121630607   -0.903550000000
 C   -2.959785794595    3.432741630607    0.000000000000
 H   -3.390615794595    3.906931630607   -0.897690000000
 H   -3.390615794595    3.906931630607    0.897690000000
 O   -3.298715794595    2.032621630607    0.000000000000
 C   -4.722155794595    1.841411630607    0.000000000000
 H   -5.165475794595    2.290421630607   -0.902100000000
 H   -5.165475794595    2.290421630607    0.902100000000
 H   -4.904335794595    0.760241630607    0.000000000000
 K   -1.200695794595    0.739851630607    0.000000000000
 O    4.077697418764   -2.512618981891    0.000000000000
 C    5.501131772151   -2.321405671691    0.000000000000
 H    5.944458453601   -2.770418490438    0.902100724152
 H    5.944458453601   -2.770418490438   -0.902100724152
 H    5.683316606771   -1.240227840604    0.000000000000
 C    3.738769918177   -3.912740856210    0.000000000000
 H    4.169598415347   -4.386927413210    0.897682624755
 H    4.169598415347   -4.386927413210   -0.897682624755
 C    2.222049794369   -4.051234346797    0.000000000000
 H    1.946129248911   -5.113607876679    0.000000000000
 H    1.784943575780   -3.597120499583   -0.903546100838
 H    1.784943575780   -3.597120499583    0.903546100838
