25

 C   -1.475217230565    3.591046725020    0.000000000000
 H   -1.199297230565    4.653416725020    0.000000000000
 H   -1.038107230565    3.136926725020    0.903550000000
 H   -1.038107230565    3.136926725020   -0.903550000000
 C   -2.991927230565    3.452546725020    0.000000000000
 H   -3.422757230565    3.926736725020   -0.897690000000
 H   -3.422757230565    3.926736725020    0.897690000000
 O   -3.330857230565    2.052426725020    0.000000000000
 C   -4.754297230565    1.861216725020    0.000000000000
 H   -5.197617230565    2.310226725020   -0.902100000000
 H   -5.197617230565    2.310226725020    0.902100000000
 H   -4.936477230565    0.780046725020    0.000000000000
 K   -1.232837230565    0.759656725020    0.000000000000
 O    4.130691357203   -2.545273090906    0.000000000000
 C    5.554125710590   -2.354059780706    0.000000000000
 H    5.997452392040   -2.803072599452    0.902100724152
 H    5.997452392040   -2.803072599452   -0.902100724152
 H    5.736310545210   -1.272881949619    0.000000000000
 C    3.791763856616   -3.945394965225    0.000000000000
 H    4.222592353785   -4.419581522225    0.897682624755
 H    4.222592353785   -4.419581522225   -0.897682624755
 C    2.275043732808   -4.083888455812    0.000000000000
 H    1.999123187350   -5.146261985694    0.000000000000
 H    1.837937514219   -3.629774608598   -0.903546100838
 H    1.837937514219   -3.629774608598    0.903546100838
