25

 C   -1.539500102506    3.630656913845    0.000000000000
 H   -1.263580102506    4.693026913845    0.000000000000
 H   -1.102390102506    3.176536913845    0.903550000000
 H   -1.102390102506    3.176536913845   -0.903550000000
 C   -3.056210102506    3.492156913845    0.000000000000
 H   -3.487040102506    3.966346913845   -0.897690000000
 H   -3.487040102506    3.966346913845    0.897690000000
 O   -3.395140102506    2.092036913845    0.000000000000
 C   -4.818580102506    1.900826913845    0.000000000000
 H   -5.261900102506    2.349836913845   -0.902100000000
 H   -5.261900102506    2.349836913845    0.902100000000
 H   -5.000760102506    0.819656913845    0.000000000000
 K   -1.297120102506    0.799266913845    0.000000000000
 O    4.236679234080   -2.610581308936    0.000000000000
 C    5.660113587467   -2.419367998736    0.000000000000
 H    6.103440268917   -2.868380817482    0.902100724152
 H    6.103440268917   -2.868380817482   -0.902100724152
 H    5.842298422087   -1.338190167649    0.000000000000
 C    3.897751733493   -4.010703183254    0.000000000000
 H    4.328580230662   -4.484889740255    0.897682624755
 H    4.328580230662   -4.484889740255   -0.897682624755
 C    2.381031609685   -4.149196673842    0.000000000000
 H    2.105111064227   -5.211570203724    0.000000000000
 H    1.943925391096   -3.695082826628   -0.903546100838
 H    1.943925391096   -3.695082826628    0.903546100838
