25

 C   -1.571641538477    3.650462008258    0.000000000000
 H   -1.295721538477    4.712832008258    0.000000000000
 H   -1.134531538477    3.196342008258    0.903550000000
 H   -1.134531538477    3.196342008258   -0.903550000000
 C   -3.088351538477    3.511962008258    0.000000000000
 H   -3.519181538477    3.986152008258   -0.897690000000
 H   -3.519181538477    3.986152008258    0.897690000000
 O   -3.427281538477    2.111842008258    0.000000000000
 C   -4.850721538477    1.920632008258    0.000000000000
 H   -5.294041538477    2.369642008258   -0.902100000000
 H   -5.294041538477    2.369642008258    0.902100000000
 H   -5.032901538477    0.839462008258    0.000000000000
 K   -1.329261538477    0.819072008258    0.000000000000
 O    4.289673172518   -2.643235417950    0.000000000000
 C    5.713107525905   -2.452022107751    0.000000000000
 H    6.156434207355   -2.901034926497    0.902100724152
 H    6.156434207355   -2.901034926497   -0.902100724152
 H    5.895292360526   -1.370844276663    0.000000000000
 C    3.950745671932   -4.043357292269    0.000000000000
 H    4.381574169101   -4.517543849270    0.897682624755
 H    4.381574169101   -4.517543849270   -0.897682624755
 C    2.434025548123   -4.181850782856    0.000000000000
 H    2.158105002665   -5.244224312739    0.000000000000
 H    1.996919329534   -3.727736935642   -0.903546100838
 H    1.996919329534   -3.727736935642    0.903546100838
