25

 C   -1.668065846388    3.709877291496    0.000000000000
 H   -1.392145846388    4.772247291496    0.000000000000
 H   -1.230955846388    3.255757291496    0.903550000000
 H   -1.230955846388    3.255757291496   -0.903550000000
 C   -3.184775846388    3.571377291496    0.000000000000
 H   -3.615605846388    4.045567291496   -0.897690000000
 H   -3.615605846388    4.045567291496    0.897690000000
 O   -3.523705846388    2.171257291496    0.000000000000
 C   -4.947145846388    1.980047291496    0.000000000000
 H   -5.390465846388    2.429057291496   -0.902100000000
 H   -5.390465846388    2.429057291496    0.902100000000
 H   -5.129325846388    0.898877291496    0.000000000000
 K   -1.425685846388    0.878487291496    0.000000000000
 O    4.448654987834   -2.741197744995    0.000000000000
 C    5.872089341221   -2.549984434795    0.000000000000
 H    6.315416022671   -2.998997253541    0.902100724152
 H    6.315416022671   -2.998997253541   -0.902100724152
 H    6.054274175841   -1.468806603708    0.000000000000
 C    4.109727487247   -4.141319619314    0.000000000000
 H    4.540555984416   -4.615506176314    0.897682624755
 H    4.540555984416   -4.615506176314   -0.897682624755
 C    2.593007363439   -4.279813109901    0.000000000000
 H    2.317086817981   -5.342186639783    0.000000000000
 H    2.155901144850   -3.825699262687   -0.903546100838
 H    2.155901144850   -3.825699262687    0.903546100838
