25

 C   -1.732348718329    3.749487480321    0.000000000000
 H   -1.456428718329    4.811857480321    0.000000000000
 H   -1.295238718329    3.295367480321    0.903550000000
 H   -1.295238718329    3.295367480321   -0.903550000000
 C   -3.249058718329    3.610987480321    0.000000000000
 H   -3.679888718329    4.085177480321   -0.897690000000
 H   -3.679888718329    4.085177480321    0.897690000000
 O   -3.587988718329    2.210867480321    0.000000000000
 C   -5.011428718329    2.019657480321    0.000000000000
 H   -5.454748718329    2.468667480321   -0.902100000000
 H   -5.454748718329    2.468667480321    0.902100000000
 H   -5.193608718329    0.938487480321    0.000000000000
 K   -1.489968718329    0.918097480321    0.000000000000
 O    4.554642864711   -2.806505963024    0.000000000000
 C    5.978077218098   -2.615292652824    0.000000000000
 H    6.421403899548   -3.064305471570    0.902100724152
 H    6.421403899548   -3.064305471570   -0.902100724152
 H    6.160262052718   -1.534114821737    0.000000000000
 C    4.215715364124   -4.206627837343    0.000000000000
 H    4.646543861293   -4.680814394343    0.897682624755
 H    4.646543861293   -4.680814394343   -0.897682624755
 C    2.698995240316   -4.345121327930    0.000000000000
 H    2.423074694858   -5.407494857812    0.000000000000
 H    2.261889021727   -3.891007480716   -0.903546100838
 H    2.261889021727   -3.891007480716    0.903546100838
