25

 C   -1.764490154300    3.769292574733    0.000000000000
 H   -1.488570154300    4.831662574733    0.000000000000
 H   -1.327380154300    3.315172574733    0.903550000000
 H   -1.327380154300    3.315172574733   -0.903550000000
 C   -3.281200154300    3.630792574733    0.000000000000
 H   -3.712030154300    4.104982574733   -0.897690000000
 H   -3.712030154300    4.104982574733    0.897690000000
 O   -3.620130154300    2.230672574733    0.000000000000
 C   -5.043570154300    2.039462574733    0.000000000000
 H   -5.486890154300    2.488472574733   -0.902100000000
 H   -5.486890154300    2.488472574733    0.902100000000
 H   -5.225750154300    0.958292574733    0.000000000000
 K   -1.522110154300    0.937902574733    0.000000000000
 O    4.607636803150   -2.839160072039    0.000000000000
 C    6.031071156537   -2.647946761839    0.000000000000
 H    6.474397837987   -3.096959580585    0.902100724152
 H    6.474397837987   -3.096959580585   -0.902100724152
 H    6.213255991157   -1.566768930752    0.000000000000
 C    4.268709302563   -4.239281946358    0.000000000000
 H    4.699537799732   -4.713468503358    0.897682624755
 H    4.699537799732   -4.713468503358   -0.897682624755
 C    2.751989178754   -4.377775436945    0.000000000000
 H    2.476068633296   -5.440148966827    0.000000000000
 H    2.314882960165   -3.923661589731   -0.903546100838
 H    2.314882960165   -3.923661589731    0.903546100838
