25

 C   -1.796631590270    3.789097669146    0.000000000000
 H   -1.520711590270    4.851467669146    0.000000000000
 H   -1.359521590270    3.334977669146    0.903550000000
 H   -1.359521590270    3.334977669146   -0.903550000000
 C   -3.313341590270    3.650597669146    0.000000000000
 H   -3.744171590270    4.124787669146   -0.897690000000
 H   -3.744171590270    4.124787669146    0.897690000000
 O   -3.652271590270    2.250477669146    0.000000000000
 C   -5.075711590270    2.059267669146    0.000000000000
 H   -5.519031590270    2.508277669146   -0.902100000000
 H   -5.519031590270    2.508277669146    0.902100000000
 H   -5.257891590270    0.978097669146    0.000000000000
 K   -1.554251590270    0.957707669146    0.000000000000
 O    4.660630741588   -2.871814181054    0.000000000000
 C    6.084065094975   -2.680600870854    0.000000000000
 H    6.527391776425   -3.129613689600    0.902100724152
 H    6.527391776425   -3.129613689600   -0.902100724152
 H    6.266249929595   -1.599423039767    0.000000000000
 C    4.321703241001   -4.271936055373    0.000000000000
 H    4.752531738171   -4.746122612373    0.897682624755
 H    4.752531738171   -4.746122612373   -0.897682624755
 C    2.804983117193   -4.410429545960    0.000000000000
 H    2.529062571735   -5.472803075842    0.000000000000
 H    2.367876898604   -3.956315698746   -0.903546100838
 H    2.367876898604   -3.956315698746    0.903546100838
