25

 C   -1.925197334152    3.868318046796    0.000000000000
 H   -1.649277334152    4.930688046796    0.000000000000
 H   -1.488087334152    3.414198046796    0.903550000000
 H   -1.488087334152    3.414198046796   -0.903550000000
 C   -3.441907334152    3.729818046796    0.000000000000
 H   -3.872737334152    4.204008046796   -0.897690000000
 H   -3.872737334152    4.204008046796    0.897690000000
 O   -3.780837334152    2.329698046796    0.000000000000
 C   -5.204277334152    2.138488046796    0.000000000000
 H   -5.647597334152    2.587498046796   -0.902100000000
 H   -5.647597334152    2.587498046796    0.902100000000
 H   -5.386457334152    1.057318046796    0.000000000000
 K   -1.682817334152    1.036928046796    0.000000000000
 O    4.872606495342   -3.002430617113    0.000000000000
 C    6.296040848729   -2.811217306913    0.000000000000
 H    6.739367530179   -3.260230125659    0.902100724152
 H    6.739367530179   -3.260230125659   -0.902100724152
 H    6.478225683349   -1.730039475826    0.000000000000
 C    4.533678994755   -4.402552491432    0.000000000000
 H    4.964507491925   -4.876739048432    0.897682624755
 H    4.964507491925   -4.876739048432   -0.897682624755
 C    3.016958870947   -4.541045982019    0.000000000000
 H    2.741038325489   -5.603419511901    0.000000000000
 H    2.579852652358   -4.086932134805   -0.903546100838
 H    2.579852652358   -4.086932134805    0.903546100838
