25

 C   -2.182328821916    4.026758802097    0.000000000000
 H   -1.906408821916    5.089128802097    0.000000000000
 H   -1.745218821916    3.572638802097    0.903550000000
 H   -1.745218821916    3.572638802097   -0.903550000000
 C   -3.699038821916    3.888258802097    0.000000000000
 H   -4.129868821916    4.362448802097   -0.897690000000
 H   -4.129868821916    4.362448802097    0.897690000000
 O   -4.037968821916    2.488138802097    0.000000000000
 C   -5.461408821916    2.296928802097    0.000000000000
 H   -5.904728821916    2.745938802097   -0.902100000000
 H   -5.904728821916    2.745938802097    0.902100000000
 H   -5.643588821916    1.215758802097    0.000000000000
 K   -1.939948821916    1.195368802097    0.000000000000
 O    5.296558002850   -3.263663489231    0.000000000000
 C    6.719992356237   -3.072450179031    0.000000000000
 H    7.163319037687   -3.521462997777    0.902100724152
 H    7.163319037687   -3.521462997777   -0.902100724152
 H    6.902177190858   -1.991272347944    0.000000000000
 C    4.957630502264   -4.663785363550    0.000000000000
 H    5.388458999433   -5.137971920550    0.897682624755
 H    5.388458999433   -5.137971920550   -0.897682624755
 C    3.440910378455   -4.802278854137    0.000000000000
 H    3.164989832997   -5.864652384019    0.000000000000
 H    3.003804159866   -4.348165006923   -0.903546100838
 H    3.003804159866   -4.348165006923    0.903546100838
