25

 C   -2.375177437739    4.145589368573    0.000000000000
 H   -2.099257437739    5.207959368573    0.000000000000
 H   -1.938067437739    3.691469368573    0.903550000000
 H   -1.938067437739    3.691469368573   -0.903550000000
 C   -3.891887437739    4.007089368573    0.000000000000
 H   -4.322717437739    4.481279368573   -0.897690000000
 H   -4.322717437739    4.481279368573    0.897690000000
 O   -4.230817437739    2.606969368573    0.000000000000
 C   -5.654257437739    2.415759368573    0.000000000000
 H   -6.097577437739    2.864769368573   -0.902100000000
 H   -6.097577437739    2.864769368573    0.902100000000
 H   -5.836437437739    1.334589368573    0.000000000000
 K   -2.132797437739    1.314199368573    0.000000000000
 O    5.614521633482   -3.459588143320    0.000000000000
 C    7.037955986869   -3.268374833120    0.000000000000
 H    7.481282668319   -3.717387651866    0.902100724152
 H    7.481282668319   -3.717387651866   -0.902100724152
 H    7.220140821489   -2.187197002033    0.000000000000
 C    5.275594132895   -4.859710017639    0.000000000000
 H    5.706422630064   -5.333896574639    0.897682624755
 H    5.706422630064   -5.333896574639   -0.897682624755
 C    3.758874009086   -4.998203508226    0.000000000000
 H    3.482953463628   -6.060577038108    0.000000000000
 H    3.321767790497   -4.544089661012   -0.903546100838
 H    3.321767790497   -4.544089661012    0.903546100838
