25

 C   -2.471601745650    4.205004651811    0.000000000000
 H   -2.195681745650    5.267374651811    0.000000000000
 H   -2.034491745650    3.750884651811    0.903550000000
 H   -2.034491745650    3.750884651811   -0.903550000000
 C   -3.988311745650    4.066504651811    0.000000000000
 H   -4.419141745650    4.540694651811   -0.897690000000
 H   -4.419141745650    4.540694651811    0.897690000000
 O   -4.327241745650    2.666384651811    0.000000000000
 C   -5.750681745650    2.475174651811    0.000000000000
 H   -6.194001745650    2.924184651811   -0.902100000000
 H   -6.194001745650    2.924184651811    0.902100000000
 H   -5.932861745650    1.394004651811    0.000000000000
 K   -2.229221745650    1.373614651811    0.000000000000
 O    5.773503448797   -3.557550470364    0.000000000000
 C    7.196937802184   -3.366337160164    0.000000000000
 H    7.640264483634   -3.815349978910    0.902100724152
 H    7.640264483634   -3.815349978910   -0.902100724152
 H    7.379122636804   -2.285159329077    0.000000000000
 C    5.434575948210   -4.957672344683    0.000000000000
 H    5.865404445380   -5.431858901683    0.897682624755
 H    5.865404445380   -5.431858901683   -0.897682624755
 C    3.917855824402   -5.096165835270    0.000000000000
 H    3.641935278944   -6.158539365152    0.000000000000
 H    3.480749605813   -4.642051988056   -0.903546100838
 H    3.480749605813   -4.642051988056    0.903546100838
