25

 C   -2.535884617591    4.244614840636    0.000000000000
 H   -2.259964617591    5.306984840636    0.000000000000
 H   -2.098774617591    3.790494840636    0.903550000000
 H   -2.098774617591    3.790494840636   -0.903550000000
 C   -4.052594617591    4.106114840636    0.000000000000
 H   -4.483424617591    4.580304840636   -0.897690000000
 H   -4.483424617591    4.580304840636    0.897690000000
 O   -4.391524617591    2.705994840636    0.000000000000
 C   -5.814964617591    2.514784840636    0.000000000000
 H   -6.258284617591    2.963794840636   -0.902100000000
 H   -6.258284617591    2.963794840636    0.902100000000
 H   -5.997144617591    1.433614840636    0.000000000000
 K   -2.293504617591    1.413224840636    0.000000000000
 O    5.879491325674   -3.622858688394    0.000000000000
 C    7.302925679061   -3.431645378194    0.000000000000
 H    7.746252360511   -3.880658196940    0.902100724152
 H    7.746252360511   -3.880658196940   -0.902100724152
 H    7.485110513681   -2.350467547107    0.000000000000
 C    5.540563825087   -5.022980562712    0.000000000000
 H    5.971392322257   -5.497167119713    0.897682624755
 H    5.971392322257   -5.497167119713   -0.897682624755
 C    4.023843701279   -5.161474053300    0.000000000000
 H    3.747923155821   -6.223847583182    0.000000000000
 H    3.586737482690   -4.707360206086   -0.903546100838
 H    3.586737482690   -4.707360206086    0.903546100838
