6

 H   -0.220076067508    2.029691985892    2.058685644327
 H    0.229980932492    0.367766985892    2.515185644327
 H   -1.431986067508    0.726377985892    1.983959644327
 C   -0.366917067508    0.963888985892    1.798602644327
 S    0.116251932492    0.614787985892    0.051319644327
RB    0.024960006032   -0.404784709655   -0.351343121096
