6

 H   -0.214733638842    2.089357660687    2.082249580198
 H    0.235323361158    0.427432660687    2.538749580198
 H   -1.426643638842    0.786043660687    2.007523580198
 C   -0.361574638842    1.023554660687    1.822166580198
 S    0.121594361158    0.674453660687    0.074883580198
RB    0.022003168656   -0.437807461728   -0.364384891173
