6

 H   -0.193363924179    2.328020359865    2.176505323682
 H    0.256693075821    0.666095359865    2.633005323682
 H   -1.405273924179    1.024706359865    2.101779323682
 C   -0.340204924179    1.262217359865    1.916422323682
 S    0.142964075821    0.913116359865    0.169139323682
RB    0.010175819152   -0.569898470021   -0.416551971479
