6

 H   -0.177336638181    2.507017384249    2.247197131294
 H    0.272720361819    0.845092384249    2.703697131294
 H   -1.389246638181    1.203703384249    2.172471131294
 C   -0.324177638181    1.441214384249    1.987114131294
 S    0.158991361819    1.092113384249    0.239831131294
RB    0.001305307024   -0.668966726241   -0.455677281709
