6

 H   -0.155966923518    2.745680083428    2.341452874778
 H    0.294090076482    1.083755083428    2.797952874778
 H   -1.367876923518    1.442366083428    2.266726874778
 C   -0.302807923518    1.679877083428    2.081369874778
 S    0.180361076482    1.330776083428    0.334086874778
RB   -0.010522042481   -0.801057734534   -0.507844362015
