6

 H   -0.129254780189    3.044008457402    2.459272554133
 H    0.320802219811    1.382083457402    2.915772554133
 H   -1.341164780189    1.740694457402    2.384546554133
 C   -0.276095780189    1.978205457402    2.199189554133
 S    0.207073219811    1.629104457402    0.451906554133
RB   -0.025306229361   -0.966171494900   -0.573053212398
