6

 H   -0.123912351523    3.103674132196    2.482836490004
 H    0.326144648477    1.441749132196    2.939336490004
 H   -1.335822351523    1.800360132196    2.408110490004
 C   -0.270753351523    2.037871132196    2.222753490004
 S    0.212415648477    1.688770132196    0.475470490004
RB   -0.028263066737   -0.999194246973   -0.586094982475
