6

 H   -0.113227494191    3.223005481786    2.529964361746
 H    0.336829505809    1.561080481786    2.986464361746
 H   -1.325137494191    1.919691481786    2.455238361746
 C   -0.260068494191    2.157202481786    2.269881361746
 S    0.223100505809    1.808101481786    0.522598361746
RB   -0.034176741489   -1.065239751120   -0.612178522628
