6

 H   -0.086515350862    3.521333855759    2.647784041101
 H    0.363541649138    1.859408855759    3.104284041101
 H   -1.298425350862    2.218019855759    2.573058041101
 C   -0.233356350862    2.455530855759    2.387701041101
 S    0.249812649138    2.106429855759    0.640418041101
RB   -0.048960928369   -1.230353511486   -0.677387373011
