6

 H   -0.070488064865    3.700330880143    2.718475848713
 H    0.379568935135    2.038405880143    3.174975848713
 H   -1.282398064865    2.397016880143    2.643749848713
 C   -0.217329064865    2.634527880143    2.458392848713
 S    0.265839935135    2.285426880143    0.711109848713
RB   -0.057831440497   -1.329421767706   -0.716512683240
