6

 H   -0.059803207533    3.819662229732    2.765603720455
 H    0.390253792467    2.157737229732    3.222103720455
 H   -1.271713207533    2.516348229732    2.690877720455
 C   -0.206644207533    2.753859229732    2.505520720455
 S    0.276524792467    2.404758229732    0.758237720455
RB   -0.063745115249   -1.395467271852   -0.742596223393
