6

 H   -0.049118350202    3.938993579322    2.812731592197
 H    0.400938649798    2.277068579322    3.269231592197
 H   -1.261028350202    2.635679579322    2.738005592197
 C   -0.195959350202    2.873190579322    2.552648592197
 S    0.287209649798    2.524089579322    0.805365592197
RB   -0.069658790001   -1.461512775999   -0.768679763547
