6

 H   -0.022406206873    4.237321953295    2.930551271552
 H    0.427650793127    2.575396953295    3.387051271552
 H   -1.234316206873    2.934007953295    2.855825271552
 C   -0.169247206873    3.171518953295    2.670468271552
 S    0.313921793127    2.822417953295    0.923185271552
RB   -0.084442976882   -1.626626536365   -0.833888613929
