6

 H   -0.006378920875    4.416318977679    3.001243079165
 H    0.443678079125    2.754393977679    3.457743079165
 H   -1.218288920875    3.113004977679    2.926517079165
 C   -0.153219920875    3.350515977679    2.741160079165
 S    0.329949079125    3.001414977679    0.993877079165
RB   -0.093313489010   -1.725694792585   -0.873013924159
