6

 H   -0.001036492210    4.475984652474    3.024807015036
 H    0.449020507790    2.814059652474    3.481307015036
 H   -1.212946492210    3.172670652474    2.950081015036
 C   -0.147877492210    3.410181652474    2.764724015036
 S    0.335291507790    3.061080652474    1.017441015036
RB   -0.096270326386   -1.758717544658   -0.886055694236
