6

 H    0.004305936456    4.535650327269    3.048370950907
 H    0.454362936456    2.873725327269    3.504870950907
 H   -1.207604063544    3.232336327269    2.973644950907
 C   -0.142535063544    3.469847327269    2.788287950907
 S    0.340633936456    3.120746327269    1.041004950907
RB   -0.099227163762   -1.791740296731   -0.899097464312
