6

 H    0.009648365122    4.595316002063    3.071934886778
 H    0.459705365122    2.933391002063    3.528434886778
 H   -1.202261634878    3.292002002063    2.997208886778
 C   -0.137192634878    3.529513002063    2.811851886778
 S    0.345976365122    3.180412002063    1.064568886778
RB   -0.102184001138   -1.824763048804   -0.912139234389
