6

 H    0.025675651119    4.774313026447    3.142626694391
 H    0.475732651119    3.112388026447    3.599126694391
 H   -1.186234348881    3.470999026447    3.067900694391
 C   -0.121165348881    3.708510026447    2.882543694391
 S    0.362003651119    3.359409026447    1.135260694391
RB   -0.111054513266   -1.923831305024   -0.951264544619
