6

 H    0.047045365783    5.012975725626    3.236882437874
 H    0.497102365783    3.351050725626    3.693382437874
 H   -1.164864634217    3.709661725626    3.162156437874
 C   -0.099795634217    3.947172725626    2.976799437874
 S    0.383373365783    3.598071725626    1.229516437874
RB   -0.122881862770   -2.055922313317   -1.003431624925
