6

 H    0.063072651780    5.191972750010    3.307574245487
 H    0.513129651780    3.530047750010    3.764074245487
 H   -1.148837348220    3.888658750010    3.232848245487
 C   -0.083768348220    4.126169750010    3.047491245487
 S    0.399400651780    3.777068750010    1.300208245487
RB   -0.131752374898   -2.154990569537   -1.042556935155
