6

 H    0.079099937778    5.370969774394    3.378266053100
 H    0.529156937778    3.709044774394    3.834766053100
 H   -1.132810062222    4.067655774394    3.303540053100
 C   -0.067741062222    4.305166774394    3.118183053100
 S    0.415427937778    3.956065774394    1.370900053100
RB   -0.140622887026   -2.254058825756   -1.081682245384
