6

 H    0.084442366443    5.430635449189    3.401829988971
 H    0.534499366443    3.768710449189    3.858329988971
 H   -1.127467633557    4.127321449189    3.327103988971
 C   -0.062398633557    4.364832449189    3.141746988971
 S    0.420770366443    4.015731449189    1.394463988971
RB   -0.143579724403   -2.287081577830   -1.094724015461
