6

 H    0.100469652441    5.609632473573    3.472521796584
 H    0.550526652441    3.947707473573    3.929021796584
 H   -1.111440347559    4.306318473573    3.397795796584
 C   -0.046371347559    4.543829473573    3.212438796584
 S    0.436797652441    4.194728473573    1.465155796584
RB   -0.152450236531   -2.386149834049   -1.133849325691
