6

 H    0.105812081107    5.669298148368    3.496085732455
 H    0.555869081107    4.007373148368    3.952585732455
 H   -1.106097918893    4.365984148368    3.421359732455
 C   -0.041028918893    4.603495148368    3.236002732455
 S    0.442140081107    4.254394148368    1.488719732455
RB   -0.155407073907   -2.419172586123   -1.146891095767
