6

 H    0.116496938438    5.788629497957    3.543213604197
 H    0.566553938438    4.126704497957    3.999713604197
 H   -1.095413061562    4.485315497957    3.468487604197
 C   -0.030344061562    4.722826497957    3.283130604197
 S    0.452824938438    4.373725497957    1.535847604197
RB   -0.161320748659   -2.485218090269   -1.172974635920
