6

 H    0.121839367104    5.848295172752    3.566777540068
 H    0.571896367104    4.186370172752    4.023277540068
 H   -1.090070632896    4.544981172752    3.492051540068
 C   -0.025001632896    4.782492172752    3.306694540068
 S    0.458167367104    4.433391172752    1.559411540068
RB   -0.164277586035   -2.518240842342   -1.186016405997
