6

 H    0.148551510433    6.146623546725    3.684597219423
 H    0.598608510433    4.484698546725    4.141097219423
 H   -1.063358489567    4.843309546725    3.609871219423
 C    0.001710510433    5.080820546725    3.424514219423
 S    0.484879510433    4.731719546725    1.677231219423
RB   -0.179061772915   -2.683354602708   -1.251225256380
