6

 H    0.169921225096    6.385286245904    3.778852962906
 H    0.619978225096    4.723361245904    4.235352962906
 H   -1.041988774904    5.081972245904    3.704126962906
 C    0.023080225096    5.319483245904    3.518769962906
 S    0.506249225096    4.970382245904    1.771486962906
RB   -0.190889122419   -2.815445611001   -1.303392336686
