6

 H    0.175263653762    6.444951920698    3.802416898777
 H    0.625320653762    4.783026920698    4.258916898777
 H   -1.036646346238    5.141637920698    3.727690898777
 C    0.028422653762    5.379148920698    3.542333898777
 S    0.511591653762    5.030047920698    1.795050898777
RB   -0.193845959795   -2.848468363075   -1.316434106763
