6

 H    0.180606082428    6.504617595493    3.825980834648
 H    0.630663082428    4.842692595493    4.282480834648
 H   -1.031303917572    5.201303595493    3.751254834648
 C    0.033765082428    5.438814595493    3.565897834648
 S    0.516934082428    5.089713595493    1.818614834648
RB   -0.196802797171   -2.881491115148   -1.329475876839
