6

 H    0.185948511094    6.564283270288    3.849544770519
 H    0.636005511094    4.902358270288    4.306044770519
 H   -1.025961488906    5.260969270288    3.774818770519
 C    0.039107511094    5.498480270288    3.589461770519
 S    0.522276511094    5.149379270288    1.842178770519
RB   -0.199759634547   -2.914513867221   -1.342517646916
