6

 H    0.201975797091    6.743280294672    3.920236578132
 H    0.652032797091    5.081355294672    4.376736578132
 H   -1.009934202909    5.439966294672    3.845510578132
 C    0.055134797091    5.677477294672    3.660153578132
 S    0.538303797091    5.328376294672    1.912870578132
RB   -0.208630146676   -3.013582123441   -1.381642957146
