6

 H    0.223345511754    6.981942993851    4.014492321616
 H    0.673402511754    5.320017993851    4.470992321616
 H   -0.988564488246    5.678628993851    3.939766321616
 C    0.076504511754    5.916139993851    3.754409321616
 S    0.559673511754    5.567038993851    2.007126321616
RB   -0.220457496180   -3.145673131734   -1.433810037452
