6

 H    0.228687940420    7.041608668645    4.038056257487
 H    0.678744940420    5.379683668645    4.494556257487
 H   -0.983222059580    5.738294668645    3.963330257487
 C    0.081846940420    5.975805668645    3.777973257487
 S    0.565015940420    5.626704668645    2.030690257487
RB   -0.223414333556   -3.178695883807   -1.446851807529
