6

 H    0.250057655083    7.280271367824    4.132312000971
 H    0.700114655083    5.618346367824    4.588812000971
 H   -0.961852344917    5.976957367824    4.057586000971
 C    0.103216655083    6.214468367824    3.872229000971
 S    0.586385655083    5.865367367824    2.124946000971
RB   -0.235241683060   -3.310786892100   -1.499018887835
