11

 H   -0.851916587771    2.481216869738    4.482266254097
 H   -0.393846587771    0.912216869738    5.098036254097
 H   -1.916526587771    1.057496869738    4.119346254097
 C   -0.877176587771    1.404216869738    4.234086254097
 S    0.215973412229    1.146376869738    2.763946254097
CS   -0.016926587771   -0.089843130262   -0.216613745903
 S   -0.168106416566   -0.892297093133   -2.151352047802
 C    0.925050810255   -1.150136395492   -3.621495638752
 H    0.899787239262   -2.227132187726   -3.869677377788
 H    0.441716800466   -0.658134501257   -4.485444943660
 H    1.964400072483   -0.803409147936   -3.506752231939
