11

 H   -0.847443322745    2.504960706967    4.539513290619
 H   -0.389373322745    0.935960706967    5.155283290619
 H   -1.912053322745    1.081240706967    4.176593290619
 C   -0.872703322745    1.427960706967    4.291333290619
 S    0.220446677255    1.170120706967    2.821193290619
CS   -0.012453322745   -0.066099293033   -0.159366709381
 S   -0.185230269939   -0.983189536314   -2.370496197266
 C    0.907926956882   -1.241028838674   -3.840639788215
 H    0.882663385889   -2.318024630908   -4.088821527251
 H    0.424592947093   -0.749026944439   -4.704589093123
 H    1.947276219110   -0.894301591118   -3.725896381403
