11

 H   -0.844461146061    2.520789931786    4.577677981634
 H   -0.386391146061    0.951789931786    5.193447981634
 H   -1.909071146061    1.097069931786    4.214757981634
 C   -0.869721146061    1.443789931786    4.329497981634
 S    0.223428853939    1.185949931786    2.859357981634
CS   -0.009471146061   -0.050270068214   -0.121202018366
 S   -0.196646172188   -1.043784498436   -2.516592296908
 C    0.896511054633   -1.301623800795   -3.986735887858
 H    0.871247483640   -2.378619593029   -4.234917626894
 H    0.413177044844   -0.809621906560   -4.850685192766
 H    1.935860316861   -0.954896553239   -3.871992481045
