11

 H   -0.842970057719    2.528704544195    4.596760327142
 H   -0.384900057719    0.959704544195    5.212530327142
 H   -1.907580057719    1.104984544195    4.233840327142
 C   -0.868230057719    1.451704544195    4.348580327142
 S    0.224919942281    1.193864544195    2.878440327142
CS   -0.007980057719   -0.042355455805   -0.102119672858
 S   -0.202354123312   -1.074081979496   -2.589640346730
 C    0.890803103508   -1.331921281856   -4.059783937679
 H    0.865539532516   -2.408917074090   -4.307965676715
 H    0.407469093719   -0.839919387621   -4.923733242587
 H    1.930152365737   -0.985194034299   -3.945040530866
