11

 H   -0.839987881035    2.544533769014    4.634925018156
 H   -0.381917881035    0.975533769014    5.250695018156
 H   -1.904597881035    1.120813769014    4.272005018156
 C   -0.865247881035    1.467533769014    4.386745018156
 S    0.227902118965    1.209693769014    2.916605018156
CS   -0.004997881035   -0.026526230986   -0.063954981844
 S   -0.213770025561   -1.134676941617   -2.735736446372
 C    0.879387201260   -1.392516243977   -4.205880037321
 H    0.854123630267   -2.469512036211   -4.454061776357
 H    0.396053191471   -0.900514349742   -5.069829342229
 H    1.918736463488   -1.045788996421   -4.091136630509
