11

 H   -0.838496792693    2.552448381423    4.654007363664
 H   -0.380426792693    0.983448381423    5.269777363664
 H   -1.903106792693    1.128728381423    4.291087363664
 C   -0.863756792693    1.475448381423    4.405827363664
 S    0.229393207307    1.217608381423    2.935687363664
CS   -0.003506792693   -0.018611618577   -0.044872636336
 S   -0.219477976685   -1.164974422678   -2.808784496193
 C    0.873679250135   -1.422813725037   -4.278928087142
 H    0.848415679143   -2.499809517271   -4.527109826179
 H    0.390345240346   -0.930811830803   -5.142877392050
 H    1.913028512364   -1.076086477481   -4.164184680330
