11

 H   -0.829550262641    2.599936055880    4.768501436708
 H   -0.371480262641    1.030936055880    5.384271436708
 H   -1.894160262641    1.176216055880    4.405581436708
 C   -0.854810262641    1.522936055880    4.520321436708
 S    0.238339737359    1.265096055880    3.050181436708
CS    0.005439737359    0.028876055880    0.069621436708
 S   -0.253725683432   -1.346759309042   -3.247072795120
 C    0.839431543389   -1.604598611401   -4.717216386070
 H    0.814167972396   -2.681594403635   -4.965398125106
 H    0.356097533600   -1.112596717166   -5.581165690978
 H    1.878780805617   -1.257871363845   -4.602472979257
