11

 H   -0.828059174299    2.607850668290    4.787583782215
 H   -0.369989174299    1.038850668290    5.403353782215
 H   -1.892669174299    1.184130668290    4.424663782215
 C   -0.853319174299    1.530850668290    4.539403782215
 S    0.239830825701    1.273010668290    3.069263782215
CS    0.006930825701    0.036790668290    0.088703782215
 S   -0.259433634556   -1.377056790102   -3.320120844942
 C    0.833723592264   -1.634896092461   -4.790264435891
 H    0.808460021272   -2.711891884695   -5.038446174927
 H    0.350389582475   -1.142894198227   -5.654213740799
 H    1.873072854493   -1.288168844905   -4.675521029078
