11

 H   -0.825076997615    2.623679893108    4.825748473230
 H   -0.367006997615    1.054679893108    5.441518473230
 H   -1.889686997615    1.199959893108    4.462828473230
 C   -0.850336997615    1.546679893108    4.577568473230
 S    0.242813002385    1.288839893108    3.107428473230
CS    0.009913002385    0.052619893108    0.126868473230
 S   -0.270849536805   -1.437651752223   -3.466216944584
 C    0.822307690015   -1.695491054583   -4.936360535533
 H    0.797044119023   -2.772486846817   -5.184542274569
 H    0.338973680226   -1.203489160348   -5.800309840441
 H    1.861656952244   -1.348763807027   -4.821617128721
