11

 H   -0.823585909273    2.631594505518    4.844830818737
 H   -0.365515909273    1.062594505518    5.460600818737
 H   -1.888195909273    1.207874505518    4.481910818737
 C   -0.848845909273    1.554594505518    4.596650818737
 S    0.244304090727    1.296754505518    3.126510818737
CS    0.011404090727    0.060534505518    0.145950818737
 S   -0.276557487929   -1.467949233284   -3.539264994405
 C    0.816599738891   -1.725788535643   -5.009408585354
 H    0.791336167899   -2.802784327877   -5.257590324391
 H    0.333265729102   -1.233786641409   -5.873357890262
 H    1.855949001120   -1.379061288087   -4.894665178542
