11

 H   -0.817621555905    2.663252955156    4.921160200767
 H   -0.359551555905    1.094252955156    5.536930200767
 H   -1.882231555905    1.239532955156    4.558240200767
 C   -0.842881555905    1.586252955156    4.672980200767
 S    0.250268444095    1.328412955156    3.202840200767
CS    0.017368444095    0.092192955156    0.222280200767
 S   -0.299389292427   -1.589139157526   -3.831457193690
 C    0.793767934393   -1.846978459886   -5.301600784639
 H    0.768504363401   -2.923974252120   -5.549782523675
 H    0.310433924604   -1.354976565651   -6.165550089547
 H    1.833117196622   -1.500251212330   -5.186857377826
