11

 H   -0.813148290879    2.686996792384    4.978407237289
 H   -0.355078290879    1.117996792384    5.594177237289
 H   -1.877758290879    1.263276792384    4.615487237289
 C   -0.838408290879    1.609996792384    4.730227237289
 S    0.254741709121    1.352156792384    3.260087237289
CS    0.021841709121    0.115936792384    0.279527237289
 S   -0.316513145800   -1.680031600708   -4.050601343154
 C    0.776644081020   -1.937870903067   -5.520744934103
 H    0.751380510028   -3.014866695301   -5.768926673139
 H    0.293310071231   -1.445869008833   -6.384694239011
 H    1.815993343249   -1.591143655511   -5.406001527290
