11

 H   -0.808675025853    2.710740629612    5.035654273811
 H   -0.350605025853    1.141740629612    5.651424273811
 H   -1.873285025853    1.287020629612    4.672734273811
 C   -0.833935025853    1.633740629612    4.787474273811
 S    0.259214974147    1.375900629612    3.317334273811
CS    0.026314974147    0.139680629612    0.336774273811
 S   -0.333636999173   -1.770924043890   -4.269745492617
 C    0.759520227647   -2.028763346249   -5.739889083566
 H    0.734256656654   -3.105759138483   -5.988070822602
 H    0.276186217858   -1.536761452015   -6.603838388474
 H    1.798869489876   -1.682036098693   -5.625145676754
