11

 H   -0.804201760827    2.734484466841    5.092901310333
 H   -0.346131760827    1.165484466841    5.708671310333
 H   -1.868811760827    1.310764466841    4.729981310333
 C   -0.829461760827    1.657484466841    4.844721310333
 S    0.263688239173    1.399644466841    3.374581310333
CS    0.030788239173    0.163424466841    0.394021310333
 S   -0.350760852547   -1.861816487072   -4.488889642081
 C    0.742396374274   -2.119655789431   -5.959033233030
 H    0.717132803281   -3.196651581665   -6.207214972066
 H    0.259062364485   -1.627653895196   -6.822982537938
 H    1.781745636502   -1.772928541875   -5.844289826217
