11

 H   -0.801219584143    2.750313691660    5.131066001348
 H   -0.343149584143    1.181313691660    5.746836001348
 H   -1.865829584143    1.326593691660    4.768146001348
 C   -0.826479584143    1.673313691660    4.882886001348
 S    0.266670415857    1.415473691660    3.412746001348
CS    0.033770415857    0.179253691660    0.432186001348
 S   -0.362176754796   -1.922411449193   -4.634985741723
 C    0.730980472025   -2.180250751552   -6.105129332672
 H    0.705716901032   -3.257246543786   -6.353311071708
 H    0.247646462236   -1.688248857318   -6.969078637580
 H    1.770329734254   -1.833523503996   -5.990385925860
