11

 H   -0.795255230775    2.781972141297    5.207395383377
 H   -0.337185230775    1.212972141297    5.823165383377
 H   -1.859865230775    1.358252141297    4.844475383377
 C   -0.820515230775    1.704972141297    4.959215383377
 S    0.272634769225    1.447132141297    3.489075383377
CS    0.039734769225    0.210912141297    0.508515383377
 S   -0.385008559293   -2.043601373435   -4.927177941008
 C    0.708148667527   -2.301440675794   -6.397321531957
 H    0.682885096535   -3.378436468028   -6.645503270993
 H    0.224814657738   -1.809438781560   -7.261270836865
 H    1.747497929756   -1.954713428238   -6.282578125144
