11

 H   -0.793764142433    2.789886753707    5.226477728885
 H   -0.335694142433    1.220886753707    5.842247728885
 H   -1.858374142433    1.366166753707    4.863557728885
 C   -0.819024142433    1.712886753707    4.978297728885
 S    0.274125857567    1.455046753707    3.508157728885
CS    0.041225857567    0.218826753707    0.527597728885
 S   -0.390716510418   -2.073898854496   -5.000225990829
 C    0.702440716403   -2.331738156855   -6.470369581778
 H    0.677177145410   -3.408733949089   -6.718551320814
 H    0.219106706614   -1.839736262621   -7.334318886686
 H    1.741789978632   -1.985010909299   -6.355626174966
