11

 H   -0.790781965749    2.805715978526    5.264642419899
 H   -0.332711965749    1.236715978526    5.880412419899
 H   -1.855391965749    1.381995978526    4.901722419899
 C   -0.816041965749    1.728715978526    5.016462419899
 S    0.277108034251    1.470875978526    3.546322419899
CS    0.044208034251    0.234655978526    0.565762419899
 S   -0.402132412666   -2.134493816617   -5.146322090472
 C    0.691024814154   -2.392333118976   -6.616465681421
 H    0.665761243162   -3.469328911210   -6.864647420457
 H    0.207690804365   -1.900331224742   -7.480414986329
 H    1.730374076383   -2.045605871420   -6.501722274608
