11

 H   -0.789290877407    2.813630590935    5.283724765407
 H   -0.331220877407    1.244630590935    5.899494765407
 H   -1.853900877407    1.389910590935    4.920804765407
 C   -0.814550877407    1.736630590935    5.035544765407
 S    0.278599122593    1.478790590935    3.565404765407
CS    0.045699122593    0.242570590935    0.584844765407
 S   -0.407840363791   -2.164791297678   -5.219370140293
 C    0.685316863030   -2.422630600037   -6.689513731242
 H    0.660053292037   -3.499626392271   -6.937695470278
 H    0.201982853241   -1.930628705802   -7.553463036150
 H    1.724666125258   -2.075903352481   -6.574770324429
