11

 H   -0.787799789065    2.821545203345    5.302807110914
 H   -0.329729789065    1.252545203345    5.918577110914
 H   -1.852409789065    1.397825203345    4.939887110914
 C   -0.813059789065    1.744545203345    5.054627110914
 S    0.280090210935    1.486705203345    3.584487110914
CS    0.047190210935    0.250485203345    0.603927110914
 S   -0.413548314915   -2.195088778738   -5.292418190114
 C    0.679608911905   -2.452928081097   -6.762561781063
 H    0.654345340913   -3.529923873331   -7.010743520099
 H    0.196274902116   -1.960926186863   -7.626511085971
 H    1.718958174134   -2.106200833541   -6.647818374250
