11

 H   -0.784817612380    2.837374428164    5.340971801929
 H   -0.326747612380    1.268374428164    5.956741801929
 H   -1.849427612380    1.413654428164    4.978051801929
 C   -0.810077612380    1.760374428164    5.092791801929
 S    0.283072387620    1.502534428164    3.622651801929
CS    0.050172387620    0.266314428164    0.642091801929
 S   -0.424964217164   -2.255683740859   -5.438514289756
 C    0.668193009657   -2.513523043219   -6.908657880706
 H    0.642929438664   -3.590518835453   -7.156839619742
 H    0.184858999868   -2.021521148984   -7.772607185613
 H    1.707542271885   -2.166795795663   -6.793914473893
