11

 H   -0.783326524038    2.845289040573    5.360054147436
 H   -0.325256524038    1.276289040573    5.975824147436
 H   -1.847936524038    1.421569040573    4.997134147436
 C   -0.808586524038    1.768289040573    5.111874147436
 S    0.284563475962    1.510449040573    3.641734147436
CS    0.051663475962    0.274229040573    0.661174147436
 S   -0.430672168288   -2.285981221920   -5.511562339578
 C    0.662485058532   -2.543820524279   -6.981705930527
 H    0.637221487540   -3.620816316513   -7.229887669563
 H    0.179151048743   -2.051818630045   -7.845655235435
 H    1.701834320761   -2.197093276723   -6.866962523714
