11

 H   -0.777362170670    2.876947490211    5.436383529466
 H   -0.319292170670    1.307947490211    6.052153529466
 H   -1.841972170670    1.453227490211    5.073463529466
 C   -0.802622170670    1.799947490211    5.188203529466
 S    0.290527829330    1.542107490211    3.718063529466
CS    0.057627829330    0.305887490211    0.737503529466
 S   -0.453503972786   -2.407171146162   -5.803754538862
 C    0.639653254035   -2.665010448522   -7.273898129812
 H    0.614389683042   -3.742006240756   -7.522079868848
 H    0.156319244246   -2.173008554287   -8.137847434719
 H    1.679002516263   -2.318283200966   -7.159154722999
