11

 H   -0.775871082328    2.884862102620    5.455465874973
 H   -0.317801082328    1.315862102620    6.071235874973
 H   -1.840481082328    1.461142102620    5.092545874973
 C   -0.801131082328    1.807862102620    5.207285874973
 S    0.292018917672    1.550022102620    3.737145874973
CS    0.059118917672    0.313802102620    0.756585874973
 S   -0.459211923910   -2.437468627223   -5.876802588684
 C    0.633945302910   -2.695307929582   -7.346946179633
 H    0.608681731918   -3.772303721816   -7.595127918669
 H    0.150611293121   -2.203306035348   -8.210895484541
 H    1.673294565139   -2.348580682026   -7.232202772820
