11

 H   -0.769906728960    2.916520552258    5.531795257003
 H   -0.311836728960    1.347520552258    6.147565257003
 H   -1.834516728960    1.492800552258    5.168875257003
 C   -0.795166728960    1.839520552258    5.283615257003
 S    0.297983271040    1.581680552258    3.813475257003
CS    0.065083271040    0.345460552258    0.832915257003
 S   -0.482043728408   -2.558658551465   -6.168994787968
 C    0.611113498412   -2.816497853825   -7.639138378918
 H    0.585849927420   -3.893493646059   -7.887320117954
 H    0.127779488623   -2.324495959590   -8.503087683825
 H    1.650462760641   -2.469770606268   -7.524394972105
