11

 H   -0.763942375592    2.948179001896    5.608124639032
 H   -0.305872375592    1.379179001896    6.223894639032
 H   -1.828552375592    1.524459001896    5.245204639032
 C   -0.789202375592    1.871179001896    5.359944639032
 S    0.303947624408    1.613339001896    3.889804639032
CS    0.071047624408    0.377119001896    0.909244639032
 S   -0.504875532906   -2.679848475708   -6.461186987253
 C    0.588281693915   -2.937687778067   -7.931330578202
 H    0.563018122922   -4.014683570301   -8.179512317238
 H    0.104947684126   -2.445685883832   -8.795279883110
 H    1.627630956144   -2.590960530511   -7.816587171390
