11

 H   -0.757978022224    2.979837451534    5.684454021061
 H   -0.299908022224    1.410837451534    6.300224021061
 H   -1.822588022224    1.556117451534    5.321534021061
 C   -0.783238022224    1.902837451534    5.436274021061
 S    0.309911977776    1.644997451534    3.966134021061
CS    0.077011977776    0.408777451534    0.985574021061
 S   -0.527707337403   -2.801038399950   -6.753379186538
 C    0.565449889417   -3.058877702309   -8.223522777487
 H    0.540186318425   -4.135873494543   -8.471704516523
 H    0.082115879628   -2.566875808075   -9.087472082395
 H    1.604799151646   -2.712150454753   -8.108779370674
