11

 H   -0.754995845540    2.995666676353    5.722618712076
 H   -0.296925845540    1.426666676353    6.338388712076
 H   -1.819605845540    1.571946676353    5.359698712076
 C   -0.780255845540    1.918666676353    5.474438712076
 S    0.312894154460    1.660826676353    4.004298712076
CS    0.079994154460    0.424606676353    1.023738712076
 S   -0.539123239652   -2.861633362071   -6.899475286180
 C    0.554033987168   -3.119472664430   -8.369618877129
 H    0.528770416176   -4.196468456664   -8.617800616166
 H    0.070699977379   -2.627470770196   -9.233568182037
 H    1.593383249397   -2.772745416874   -8.254875470317
