11

 H   -0.747540403830    3.035239738400    5.818030439613
 H   -0.289470403830    1.466239738400    6.433800439613
 H   -1.812150403830    1.611519738400    5.455110439613
 C   -0.772800403830    1.958239738400    5.569850439613
 S    0.320349596170    1.700399738400    4.099710439613
CS    0.087449596170    0.464179738400    1.119150439613
 S   -0.567662995274   -3.013120767374   -7.264715535286
 C    0.525494231546   -3.270960069733   -8.734859126235
 H    0.500230660554   -4.347955861967   -8.983040865272
 H    0.042160221757   -2.778958175499   -9.598808431143
 H    1.564843493775   -2.924232822177   -8.620115719423
