11

 H   -0.743067138804    3.058983575628    5.875277476135
 H   -0.284997138804    1.489983575628    6.491047476135
 H   -1.807677138804    1.635263575628    5.512357476135
 C   -0.768327138804    1.981983575628    5.627097476135
 S    0.324822861196    1.724143575628    4.156957476135
CS    0.091922861196    0.487923575628    1.176397476135
 S   -0.584786848647   -3.104013210556   -7.483859684750
 C    0.508370378173   -3.361852512915   -8.954003275699
 H    0.483106807181   -4.438848305149   -9.202185014735
 H    0.025036368384   -2.869850618681   -9.817952580607
 H    1.547719640402   -3.015125265359   -8.839259868886
