11

 H   -0.741576050462    3.066898188038    5.894359821643
 H   -0.283506050462    1.497898188038    6.510129821643
 H   -1.806186050462    1.643178188038    5.531439821643
 C   -0.766836050462    1.989898188038    5.646179821643
 S    0.326313949538    1.732058188038    4.176039821643
CS    0.093413949538    0.495838188038    1.195479821643
 S   -0.590494799772   -3.134310691617   -7.556907734571
 C    0.502662427049   -3.392149993976   -9.027051325520
 H    0.477398856056   -4.469145786210   -9.275233064556
 H    0.019328417260   -2.900148099741   -9.891000630428
 H    1.542011689277   -3.045422746420   -8.912307918708
