11

 H   -0.740084962120    3.074812800447    5.913442167150
 H   -0.282014962120    1.505812800447    6.529212167150
 H   -1.804694962120    1.651092800447    5.550522167150
 C   -0.765344962120    1.997812800447    5.665262167150
 S    0.327805037880    1.739972800447    4.195122167150
CS    0.094905037880    0.503752800447    1.214562167150
 S   -0.596202750896   -3.164608172677   -7.629955784392
 C    0.496954475924   -3.422447475036   -9.100099375341
 H    0.471690904932   -4.499443267270   -9.348281114378
 H    0.013620466135   -2.930445580802   -9.964048680249
 H    1.536303738153   -3.075720227480   -8.985355968529
