11

 H   -0.735611697094    3.098556637676    5.970689203672
 H   -0.277541697094    1.529556637676    6.586459203672
 H   -1.800221697094    1.674836637676    5.607769203672
 C   -0.760871697094    2.021556637676    5.722509203672
 S    0.332278302906    1.763716637676    4.252369203672
CS    0.099378302906    0.527496637676    1.271809203672
 S   -0.613326604269   -3.255500615859   -7.849099933856
 C    0.479830622551   -3.513339918218   -9.319243524805
 H    0.454567051559   -4.590335710452   -9.567425263841
 H   -0.003503387238   -3.021338023984  -10.183192829713
 H    1.519179884780   -3.166612670662   -9.204500117992
