13

 C    2.395194430060    0.981951726743    0.000000000000
 H    1.928574430060    1.974118726743    0.000000000000
 H    3.032343430060    0.877534726743    0.892506000000
 H    3.032343430060    0.877534726743   -0.892506000000
 C    1.297019430060   -0.069133273257    0.000000000000
 O    0.090856430060    0.208920726743    0.000000000000
 N    1.727948430060   -1.369282273257    0.000000000000
 H    2.720125430060   -1.563183273257    0.000000000000
 C    0.769613430060   -2.467810273257    0.000000000000
 H    0.125548430060   -2.419331273257    0.890708000000
 H    0.125548430060   -2.419331273257   -0.890708000000
 H    1.322839430060   -3.416235273257    0.000000000000
RB   -1.078474850869    0.478483994715    0.000000000000
