13

 C    2.499954231764    0.957801689059    0.000000000000
 H    2.033334231764    1.949968689059    0.000000000000
 H    3.137103231764    0.853384689059    0.892506000000
 H    3.137103231764    0.853384689059   -0.892506000000
 C    1.401779231764   -0.093283310941    0.000000000000
 O    0.195616231764    0.184770689059    0.000000000000
 N    1.832708231764   -1.393432310941    0.000000000000
 H    2.824885231764   -1.587333310941    0.000000000000
 C    0.874373231764   -2.491960310941    0.000000000000
 H    0.230308231764   -2.443481310941    0.890708000000
 H    0.230308231764   -2.443481310941   -0.890708000000
 H    1.427599231764   -3.440385310941    0.000000000000
RB   -1.168603595987    0.499261168360    0.000000000000
