13

 C    2.552334132616    0.945726670217    0.000000000000
 H    2.085714132616    1.937893670217    0.000000000000
 H    3.189483132616    0.841309670217    0.892506000000
 H    3.189483132616    0.841309670217   -0.892506000000
 C    1.454159132616   -0.105358329783    0.000000000000
 O    0.247996132616    0.172695670217    0.000000000000
 N    1.885088132616   -1.405507329783    0.000000000000
 H    2.877265132616   -1.599408329783    0.000000000000
 C    0.926753132616   -2.504035329783    0.000000000000
 H    0.282688132616   -2.455556329783    0.890708000000
 H    0.282688132616   -2.455556329783   -0.890708000000
 H    1.479979132616   -3.452460329783    0.000000000000
RB   -1.213667968546    0.509649755183    0.000000000000
