13

 C    2.657093934320    0.921576632533    0.000000000000
 H    2.190473934320    1.913743632533    0.000000000000
 H    3.294242934320    0.817159632533    0.892506000000
 H    3.294242934320    0.817159632533   -0.892506000000
 C    1.558918934320   -0.129508367467    0.000000000000
 O    0.352755934320    0.148545632533    0.000000000000
 N    1.989847934320   -1.429657367467    0.000000000000
 H    2.982024934320   -1.623558367467    0.000000000000
 C    1.031512934320   -2.528185367467    0.000000000000
 H    0.387447934320   -2.479706367467    0.890708000000
 H    0.387447934320   -2.479706367467   -0.890708000000
 H    1.584738934320   -3.476610367467    0.000000000000
RB   -1.303796713664    0.530426928827    0.000000000000
