13

 C    2.761853736023    0.897426594849    0.000000000000
 H    2.295233736023    1.889593594849    0.000000000000
 H    3.399002736023    0.793009594849    0.892506000000
 H    3.399002736023    0.793009594849   -0.892506000000
 C    1.663678736023   -0.153658405151    0.000000000000
 O    0.457515736023    0.124395594849    0.000000000000
 N    2.094607736023   -1.453807405151    0.000000000000
 H    3.086784736023   -1.647708405151    0.000000000000
 C    1.136272736023   -2.552335405151    0.000000000000
 H    0.492207736023   -2.503856405151    0.890708000000
 H    0.492207736023   -2.503856405151   -0.890708000000
 H    1.689498736023   -3.500760405151    0.000000000000
RB   -1.393925458782    0.551204102472    0.000000000000
