13

 C    2.814233636875    0.885351576007    0.000000000000
 H    2.347613636875    1.877518576007    0.000000000000
 H    3.451382636875    0.780934576007    0.892506000000
 H    3.451382636875    0.780934576007   -0.892506000000
 C    1.716058636875   -0.165733423993    0.000000000000
 O    0.509895636875    0.112320576007    0.000000000000
 N    2.146987636875   -1.465882423993    0.000000000000
 H    3.139164636875   -1.659783423993    0.000000000000
 C    1.188652636875   -2.564410423993    0.000000000000
 H    0.544587636875   -2.515931423993    0.890708000000
 H    0.544587636875   -2.515931423993   -0.890708000000
 H    1.741878636875   -3.512835423993    0.000000000000
RB   -1.438989831341    0.561592689295    0.000000000000
