13

 C    2.866613537727    0.873276557165    0.000000000000
 H    2.399993537727    1.865443557165    0.000000000000
 H    3.503762537727    0.768859557165    0.892506000000
 H    3.503762537727    0.768859557165   -0.892506000000
 C    1.768438537727   -0.177808442835    0.000000000000
 O    0.562275537727    0.100245557165    0.000000000000
 N    2.199367537727   -1.477957442835    0.000000000000
 H    3.191544537727   -1.671858442835    0.000000000000
 C    1.241032537727   -2.576485442835    0.000000000000
 H    0.596967537727   -2.528006442835    0.890708000000
 H    0.596967537727   -2.528006442835   -0.890708000000
 H    1.794258537727   -3.524910442835    0.000000000000
RB   -1.484054203900    0.571981276117    0.000000000000
