13

 C    2.971373339431    0.849126519481    0.000000000000
 H    2.504753339431    1.841293519481    0.000000000000
 H    3.608522339431    0.744709519481    0.892506000000
 H    3.608522339431    0.744709519481   -0.892506000000
 C    1.873198339431   -0.201958480519    0.000000000000
 O    0.667035339431    0.076095519481    0.000000000000
 N    2.304127339431   -1.502107480519    0.000000000000
 H    3.296304339431   -1.696008480519    0.000000000000
 C    1.345792339431   -2.600635480519    0.000000000000
 H    0.701727339431   -2.552156480519    0.890708000000
 H    0.701727339431   -2.552156480519   -0.890708000000
 H    1.899018339431   -3.549060480519    0.000000000000
RB   -1.574182949017    0.592758449762    0.000000000000
