13

 C    3.023753240282    0.837051500639    0.000000000000
 H    2.557133240282    1.829218500639    0.000000000000
 H    3.660902240282    0.732634500639    0.892506000000
 H    3.660902240282    0.732634500639   -0.892506000000
 C    1.925578240282   -0.214033499361    0.000000000000
 O    0.719415240282    0.064020500639    0.000000000000
 N    2.356507240282   -1.514182499361    0.000000000000
 H    3.348684240282   -1.708083499361    0.000000000000
 C    1.398172240282   -2.612710499361    0.000000000000
 H    0.754107240282   -2.564231499361    0.890708000000
 H    0.754107240282   -2.564231499361   -0.890708000000
 H    1.951398240282   -3.561135499361    0.000000000000
RB   -1.619247321576    0.603147036584    0.000000000000
