13

 C    3.233272843690    0.788751425272    0.000000000000
 H    2.766652843690    1.780918425272    0.000000000000
 H    3.870421843690    0.684334425272    0.892506000000
 H    3.870421843690    0.684334425272   -0.892506000000
 C    2.135097843690   -0.262333574728    0.000000000000
 O    0.928934843690    0.015720425272    0.000000000000
 N    2.566026843690   -1.562482574728    0.000000000000
 H    3.558203843690   -1.756383574728    0.000000000000
 C    1.607691843690   -2.661010574728    0.000000000000
 H    0.963626843690   -2.612531574728    0.890708000000
 H    0.963626843690   -2.612531574728   -0.890708000000
 H    2.160917843690   -3.609435574728    0.000000000000
RB   -1.799504811812    0.644701383874    0.000000000000
