13

 C    3.285652744542    0.776676406430    0.000000000000
 H    2.819032744542    1.768843406430    0.000000000000
 H    3.922801744542    0.672259406430    0.892506000000
 H    3.922801744542    0.672259406430   -0.892506000000
 C    2.187477744542   -0.274408593570    0.000000000000
 O    0.981314744542    0.003645406430    0.000000000000
 N    2.618406744542   -1.574557593570    0.000000000000
 H    3.610583744542   -1.768458593570    0.000000000000
 C    1.660071744542   -2.673085593570    0.000000000000
 H    1.016006744542   -2.624606593570    0.890708000000
 H    1.016006744542   -2.624606593570   -0.890708000000
 H    2.213297744542   -3.621510593570    0.000000000000
RB   -1.844569184371    0.655089970697    0.000000000000
