13

 C    3.338032645393    0.764601387588    0.000000000000
 H    2.871412645393    1.756768387588    0.000000000000
 H    3.975181645393    0.660184387588    0.892506000000
 H    3.975181645393    0.660184387588   -0.892506000000
 C    2.239857645393   -0.286483612412    0.000000000000
 O    1.033694645393   -0.008429612412    0.000000000000
 N    2.670786645393   -1.586632612412    0.000000000000
 H    3.662963645393   -1.780533612412    0.000000000000
 C    1.712451645393   -2.685160612412    0.000000000000
 H    1.068386645393   -2.636681612412    0.890708000000
 H    1.068386645393   -2.636681612412   -0.890708000000
 H    2.265677645393   -3.633585612412    0.000000000000
RB   -1.889633556930    0.665478557519    0.000000000000
