13

 C    3.547552248801    0.716301312220    0.000000000000
 H    3.080932248801    1.708468312220    0.000000000000
 H    4.184701248801    0.611884312220    0.892506000000
 H    4.184701248801    0.611884312220   -0.892506000000
 C    2.449377248801   -0.334783687780    0.000000000000
 O    1.243214248801   -0.056729687780    0.000000000000
 N    2.880306248801   -1.634932687780    0.000000000000
 H    3.872483248801   -1.828833687780    0.000000000000
 C    1.921971248801   -2.733460687780    0.000000000000
 H    1.277906248801   -2.684981687780    0.890708000000
 H    1.277906248801   -2.684981687780   -0.890708000000
 H    2.475197248801   -3.681885687780    0.000000000000
RB   -2.069891047166    0.707032904809    0.000000000000
