13

 C    3.599932149653    0.704226293378    0.000000000000
 H    3.133312149653    1.696393293378    0.000000000000
 H    4.237081149653    0.599809293378    0.892506000000
 H    4.237081149653    0.599809293378   -0.892506000000
 C    2.501757149653   -0.346858706622    0.000000000000
 O    1.295594149653   -0.068804706622    0.000000000000
 N    2.932686149653   -1.647007706622    0.000000000000
 H    3.924863149653   -1.840908706622    0.000000000000
 C    1.974351149653   -2.745535706622    0.000000000000
 H    1.330286149653   -2.697056706622    0.890708000000
 H    1.330286149653   -2.697056706622   -0.890708000000
 H    2.527577149653   -3.693960706622    0.000000000000
RB   -2.114955419725    0.717421491631    0.000000000000
