13

 C    3.652312050505    0.692151274536    0.000000000000
 H    3.185692050505    1.684318274536    0.000000000000
 H    4.289461050505    0.587734274536    0.892506000000
 H    4.289461050505    0.587734274536   -0.892506000000
 C    2.554137050505   -0.358933725464    0.000000000000
 O    1.347974050505   -0.080879725464    0.000000000000
 N    2.985066050505   -1.659082725464    0.000000000000
 H    3.977243050505   -1.852983725464    0.000000000000
 C    2.026731050505   -2.757610725464    0.000000000000
 H    1.382666050505   -2.709131725464    0.890708000000
 H    1.382666050505   -2.709131725464   -0.890708000000
 H    2.579957050505   -3.706035725464    0.000000000000
RB   -2.160019792284    0.727810078454    0.000000000000
