13

 C    3.704691951356    0.680076255694    0.000000000000
 H    3.238071951356    1.672243255694    0.000000000000
 H    4.341840951356    0.575659255694    0.892506000000
 H    4.341840951356    0.575659255694   -0.892506000000
 C    2.606516951356   -0.371008744306    0.000000000000
 O    1.400353951356   -0.092954744306    0.000000000000
 N    3.037445951356   -1.671157744306    0.000000000000
 H    4.029622951356   -1.865058744306    0.000000000000
 C    2.079110951356   -2.769685744306    0.000000000000
 H    1.435045951356   -2.721206744306    0.890708000000
 H    1.435045951356   -2.721206744306   -0.890708000000
 H    2.632336951356   -3.718110744306    0.000000000000
RB   -2.205084164843    0.738198665276    0.000000000000
