13

 C    3.757071852208    0.668001236852    0.000000000000
 H    3.290451852208    1.660168236852    0.000000000000
 H    4.394220852208    0.563584236852    0.892506000000
 H    4.394220852208    0.563584236852   -0.892506000000
 C    2.658896852208   -0.383083763148    0.000000000000
 O    1.452733852208   -0.105029763148    0.000000000000
 N    3.089825852208   -1.683232763148    0.000000000000
 H    4.082002852208   -1.877133763148    0.000000000000
 C    2.131490852208   -2.781760763148    0.000000000000
 H    1.487425852208   -2.733281763148    0.890708000000
 H    1.487425852208   -2.733281763148   -0.890708000000
 H    2.684716852208   -3.730185763148    0.000000000000
RB   -2.250148537402    0.748587252099    0.000000000000
