13

 C    3.861831653912    0.643851199168    0.000000000000
 H    3.395211653912    1.636018199168    0.000000000000
 H    4.498980653912    0.539434199168    0.892506000000
 H    4.498980653912    0.539434199168   -0.892506000000
 C    2.763656653912   -0.407233800832    0.000000000000
 O    1.557493653912   -0.129179800832    0.000000000000
 N    3.194585653912   -1.707382800832    0.000000000000
 H    4.186762653912   -1.901283800832    0.000000000000
 C    2.236250653912   -2.805910800832    0.000000000000
 H    1.592185653912   -2.757431800832    0.890708000000
 H    1.592185653912   -2.757431800832   -0.890708000000
 H    2.789476653912   -3.754335800832    0.000000000000
RB   -2.340277282519    0.769364425743    0.000000000000
