13

 C    3.914211554764    0.631776180326    0.000000000000
 H    3.447591554764    1.623943180326    0.000000000000
 H    4.551360554764    0.527359180326    0.892506000000
 H    4.551360554764    0.527359180326   -0.892506000000
 C    2.816036554764   -0.419308819674    0.000000000000
 O    1.609873554764   -0.141254819674    0.000000000000
 N    3.246965554764   -1.719457819674    0.000000000000
 H    4.239142554764   -1.913358819674    0.000000000000
 C    2.288630554764   -2.817985819674    0.000000000000
 H    1.644565554764   -2.769506819674    0.890708000000
 H    1.644565554764   -2.769506819674   -0.890708000000
 H    2.841856554764   -3.766410819674    0.000000000000
RB   -2.385341655078    0.779753012566    0.000000000000
