13

 C    3.966591455616    0.619701161484    0.000000000000
 H    3.499971455616    1.611868161484    0.000000000000
 H    4.603740455616    0.515284161484    0.892506000000
 H    4.603740455616    0.515284161484   -0.892506000000
 C    2.868416455616   -0.431383838516    0.000000000000
 O    1.662253455616   -0.153329838516    0.000000000000
 N    3.299345455616   -1.731532838516    0.000000000000
 H    4.291522455616   -1.925433838516    0.000000000000
 C    2.341010455616   -2.830060838516    0.000000000000
 H    1.696945455616   -2.781581838516    0.890708000000
 H    1.696945455616   -2.781581838516   -0.890708000000
 H    2.894236455616   -3.778485838516    0.000000000000
RB   -2.430406027637    0.790141599388    0.000000000000
