13

 C    4.123731158171    0.583476104959    0.000000000000
 H    3.657111158171    1.575643104959    0.000000000000
 H    4.760880158171    0.479059104959    0.892506000000
 H    4.760880158171    0.479059104959   -0.892506000000
 C    3.025556158171   -0.467608895041    0.000000000000
 O    1.819393158171   -0.189554895041    0.000000000000
 N    3.456485158171   -1.767757895041    0.000000000000
 H    4.448662158171   -1.961658895041    0.000000000000
 C    2.498150158171   -2.866285895041    0.000000000000
 H    1.854085158171   -2.817806895041    0.890708000000
 H    1.854085158171   -2.817806895041   -0.890708000000
 H    3.051376158171   -3.814710895041    0.000000000000
RB   -2.565599145314    0.821307359856    0.000000000000
