13

 C    4.280870860727    0.547251048433    0.000000000000
 H    3.814250860727    1.539418048433    0.000000000000
 H    4.918019860727    0.442834048433    0.892506000000
 H    4.918019860727    0.442834048433   -0.892506000000
 C    3.182695860727   -0.503833951567    0.000000000000
 O    1.976532860727   -0.225779951567    0.000000000000
 N    3.613624860727   -1.803982951567    0.000000000000
 H    4.605801860727   -1.997883951567    0.000000000000
 C    2.655289860727   -2.902510951567    0.000000000000
 H    2.011224860727   -2.854031951567    0.890708000000
 H    2.011224860727   -2.854031951567   -0.890708000000
 H    3.208515860727   -3.850935951567    0.000000000000
RB   -2.700792262991    0.852473120323    0.000000000000
