13

 C    4.385630662430    0.523101010749    0.000000000000
 H    3.919010662430    1.515268010749    0.000000000000
 H    5.022779662430    0.418684010749    0.892506000000
 H    5.022779662430    0.418684010749   -0.892506000000
 C    3.287455662430   -0.527983989251    0.000000000000
 O    2.081292662430   -0.249929989251    0.000000000000
 N    3.718384662430   -1.828132989251    0.000000000000
 H    4.710561662430   -2.022033989251    0.000000000000
 C    2.760049662430   -2.926660989251    0.000000000000
 H    2.115984662430   -2.878181989251    0.890708000000
 H    2.115984662430   -2.878181989251   -0.890708000000
 H    3.313275662430   -3.875085989251    0.000000000000
RB   -2.790921008109    0.873250293968    0.000000000000
