13

 C    4.438010563282    0.511025991907    0.000000000000
 H    3.971390563282    1.503192991907    0.000000000000
 H    5.075159563282    0.406608991907    0.892506000000
 H    5.075159563282    0.406608991907   -0.892506000000
 C    3.339835563282   -0.540059008093    0.000000000000
 O    2.133672563282   -0.262005008093    0.000000000000
 N    3.770764563282   -1.840208008093    0.000000000000
 H    4.762941563282   -2.034109008093    0.000000000000
 C    2.812429563282   -2.938736008093    0.000000000000
 H    2.168364563282   -2.890257008093    0.890708000000
 H    2.168364563282   -2.890257008093   -0.890708000000
 H    3.365655563282   -3.887161008093    0.000000000000
RB   -2.835985380668    0.883638880790    0.000000000000
