13

 C    4.647530166689    0.462725916539    0.000000000000
 H    4.180910166689    1.454892916539    0.000000000000
 H    5.284679166689    0.358308916539    0.892506000000
 H    5.284679166689    0.358308916539   -0.892506000000
 C    3.549355166689   -0.588359083461    0.000000000000
 O    2.343192166689   -0.310305083461    0.000000000000
 N    3.980284166689   -1.888508083461    0.000000000000
 H    4.972461166689   -2.082409083461    0.000000000000
 C    3.021949166689   -2.987036083461    0.000000000000
 H    2.377884166689   -2.938557083461    0.890708000000
 H    2.377884166689   -2.938557083461   -0.890708000000
 H    3.575175166689   -3.935461083461    0.000000000000
RB   -3.016242870904    0.925193228080    0.000000000000
