13

 C    4.857049770097    0.414425841171    0.000000000000
 H    4.390429770097    1.406592841171    0.000000000000
 H    5.494198770097    0.310008841171    0.892506000000
 H    5.494198770097    0.310008841171   -0.892506000000
 C    3.758874770097   -0.636659158829    0.000000000000
 O    2.552711770097   -0.358605158829    0.000000000000
 N    4.189803770097   -1.936808158829    0.000000000000
 H    5.181980770097   -2.130709158829    0.000000000000
 C    3.231468770097   -3.035336158829    0.000000000000
 H    2.587403770097   -2.986857158829    0.890708000000
 H    2.587403770097   -2.986857158829   -0.890708000000
 H    3.784694770097   -3.983761158829    0.000000000000
RB   -3.196500361139    0.966747575370    0.000000000000
