13

 C    4.909429670949    0.402350822329    0.000000000000
 H    4.442809670949    1.394517822329    0.000000000000
 H    5.546578670949    0.297933822329    0.892506000000
 H    5.546578670949    0.297933822329   -0.892506000000
 C    3.811254670949   -0.648734177671    0.000000000000
 O    2.605091670949   -0.370680177671    0.000000000000
 N    4.242183670949   -1.948883177671    0.000000000000
 H    5.234360670949   -2.142784177671    0.000000000000
 C    3.283848670949   -3.047411177671    0.000000000000
 H    2.639783670949   -2.998932177671    0.890708000000
 H    2.639783670949   -2.998932177671   -0.890708000000
 H    3.837074670949   -3.995836177671    0.000000000000
RB   -3.241564733698    0.977136162192    0.000000000000
