13

 C    4.961809571801    0.390275803487    0.000000000000
 H    4.495189571801    1.382442803487    0.000000000000
 H    5.598958571801    0.285858803487    0.892506000000
 H    5.598958571801    0.285858803487   -0.892506000000
 C    3.863634571801   -0.660809196513    0.000000000000
 O    2.657471571801   -0.382755196513    0.000000000000
 N    4.294563571801   -1.960958196513    0.000000000000
 H    5.286740571801   -2.154859196513    0.000000000000
 C    3.336228571801   -3.059486196513    0.000000000000
 H    2.692163571801   -3.011007196513    0.890708000000
 H    2.692163571801   -3.011007196513   -0.890708000000
 H    3.889454571801   -4.007911196513    0.000000000000
RB   -3.286629106257    0.987524749014    0.000000000000
