13

 C    5.014189472652    0.378200784645    0.000000000000
 H    4.547569472652    1.370367784645    0.000000000000
 H    5.651338472652    0.273783784645    0.892506000000
 H    5.651338472652    0.273783784645   -0.892506000000
 C    3.916014472652   -0.672884215355    0.000000000000
 O    2.709851472652   -0.394830215355    0.000000000000
 N    4.346943472652   -1.973033215355    0.000000000000
 H    5.339120472652   -2.166934215355    0.000000000000
 C    3.388608472652   -3.071561215355    0.000000000000
 H    2.744543472652   -3.023082215355    0.890708000000
 H    2.744543472652   -3.023082215355   -0.890708000000
 H    3.941834472652   -4.019986215355    0.000000000000
RB   -3.331693478816    0.997913335837    0.000000000000
