13

 C    5.066569373504    0.366125765804    0.000000000000
 H    4.599949373504    1.358292765804    0.000000000000
 H    5.703718373504    0.261708765804    0.892506000000
 H    5.703718373504    0.261708765804   -0.892506000000
 C    3.968394373504   -0.684959234196    0.000000000000
 O    2.762231373504   -0.406905234196    0.000000000000
 N    4.399323373504   -1.985108234196    0.000000000000
 H    5.391500373504   -2.179009234196    0.000000000000
 C    3.440988373504   -3.083636234196    0.000000000000
 H    2.796923373504   -3.035157234196    0.890708000000
 H    2.796923373504   -3.035157234196   -0.890708000000
 H    3.994214373504   -4.032061234196    0.000000000000
RB   -3.376757851375    1.008301922659    0.000000000000
