13

 C    5.276088976912    0.317825690436    0.000000000000
 H    4.809468976912    1.309992690436    0.000000000000
 H    5.913237976912    0.213408690436    0.892506000000
 H    5.913237976912    0.213408690436   -0.892506000000
 C    4.177913976912   -0.733259309564    0.000000000000
 O    2.971750976912   -0.455205309564    0.000000000000
 N    4.608842976912   -2.033408309564    0.000000000000
 H    5.601019976912   -2.227309309564    0.000000000000
 C    3.650507976912   -3.131936309564    0.000000000000
 H    3.006442976912   -3.083457309564    0.890708000000
 H    3.006442976912   -3.083457309564   -0.890708000000
 H    4.203733976912   -4.080361309564    0.000000000000
RB   -3.557015341611    1.049856269949    0.000000000000
