13

 C    5.380848778615    0.293675652752    0.000000000000
 H    4.914228778615    1.285842652752    0.000000000000
 H    6.017997778615    0.189258652752    0.892506000000
 H    6.017997778615    0.189258652752   -0.892506000000
 C    4.282673778615   -0.757409347248    0.000000000000
 O    3.076510778615   -0.479355347248    0.000000000000
 N    4.713602778615   -2.057558347248    0.000000000000
 H    5.705779778615   -2.251459347248    0.000000000000
 C    3.755267778615   -3.156086347248    0.000000000000
 H    3.111202778615   -3.107607347248    0.890708000000
 H    3.111202778615   -3.107607347248   -0.890708000000
 H    4.308493778615   -4.104511347248    0.000000000000
RB   -3.647144086729    1.070633443594    0.000000000000
