13

 C    5.485608580319    0.269525615068    0.000000000000
 H    5.018988580319    1.261692615068    0.000000000000
 H    6.122757580319    0.165108615068    0.892506000000
 H    6.122757580319    0.165108615068   -0.892506000000
 C    4.387433580319   -0.781559384932    0.000000000000
 O    3.181270580319   -0.503505384932    0.000000000000
 N    4.818362580319   -2.081708384932    0.000000000000
 H    5.810539580319   -2.275609384932    0.000000000000
 C    3.860027580319   -3.180236384932    0.000000000000
 H    3.215962580319   -3.131757384932    0.890708000000
 H    3.215962580319   -3.131757384932   -0.890708000000
 H    4.413253580319   -4.128661384932    0.000000000000
RB   -3.737272831847    1.091410617239    0.000000000000
