13

 C    5.537988481171    0.257450596226    0.000000000000
 H    5.071368481171    1.249617596226    0.000000000000
 H    6.175137481171    0.153033596226    0.892506000000
 H    6.175137481171    0.153033596226   -0.892506000000
 C    4.439813481171   -0.793634403774    0.000000000000
 O    3.233650481171   -0.515580403774    0.000000000000
 N    4.870742481171   -2.093783403774    0.000000000000
 H    5.862919481171   -2.287684403774    0.000000000000
 C    3.912407481171   -3.192311403774    0.000000000000
 H    3.268342481171   -3.143832403774    0.890708000000
 H    3.268342481171   -3.143832403774   -0.890708000000
 H    4.465633481171   -4.140736403774    0.000000000000
RB   -3.782337204406    1.101799204061    0.000000000000
