13

 C    5.799887985430    0.197075502016    0.000000000000
 H    5.333267985430    1.189242502016    0.000000000000
 H    6.437036985430    0.092658502016    0.892506000000
 H    6.437036985430    0.092658502016   -0.892506000000
 C    4.701712985430   -0.854009497984    0.000000000000
 O    3.495549985430   -0.575955497984    0.000000000000
 N    5.132641985430   -2.154158497984    0.000000000000
 H    6.124818985430   -2.348059497984    0.000000000000
 C    4.174306985430   -3.252686497984    0.000000000000
 H    3.530241985430   -3.204207497984    0.890708000000
 H    3.530241985430   -3.204207497984   -0.890708000000
 H    4.727532985430   -4.201111497984    0.000000000000
RB   -4.007659067200    1.153742138173    0.000000000000
