13

 C    5.852267886282    0.185000483174    0.000000000000
 H    5.385647886282    1.177167483174    0.000000000000
 H    6.489416886282    0.080583483174    0.892506000000
 H    6.489416886282    0.080583483174   -0.892506000000
 C    4.754092886282   -0.866084516826    0.000000000000
 O    3.547929886282   -0.588030516826    0.000000000000
 N    5.185021886282   -2.166233516826    0.000000000000
 H    6.177198886282   -2.360134516826    0.000000000000
 C    4.226686886282   -3.264761516826    0.000000000000
 H    3.582621886282   -3.216282516826    0.890708000000
 H    3.582621886282   -3.216282516826   -0.890708000000
 H    4.779912886282   -4.213186516826    0.000000000000
RB   -4.052723439759    1.164130724996    0.000000000000
