13

 C    5.904647787134    0.172925464332    0.000000000000
 H    5.438027787134    1.165092464332    0.000000000000
 H    6.541796787134    0.068508464332    0.892506000000
 H    6.541796787134    0.068508464332   -0.892506000000
 C    4.806472787134   -0.878159535668    0.000000000000
 O    3.600309787134   -0.600105535668    0.000000000000
 N    5.237401787134   -2.178308535668    0.000000000000
 H    6.229578787134   -2.372209535668    0.000000000000
 C    4.279066787134   -3.276836535668    0.000000000000
 H    3.635001787134   -3.228357535668    0.890708000000
 H    3.635001787134   -3.228357535668   -0.890708000000
 H    4.832292787134   -4.225261535668    0.000000000000
RB   -4.097787812318    1.174519311818    0.000000000000
