13

 C    6.009407588837    0.148775426649    0.000000000000
 H    5.542787588837    1.140942426649    0.000000000000
 H    6.646556588837    0.044358426649    0.892506000000
 H    6.646556588837    0.044358426649   -0.892506000000
 C    4.911232588837   -0.902309573351    0.000000000000
 O    3.705069588837   -0.624255573351    0.000000000000
 N    5.342161588837   -2.202458573351    0.000000000000
 H    6.334338588837   -2.396359573351    0.000000000000
 C    4.383826588837   -3.300986573351    0.000000000000
 H    3.739761588837   -3.252507573351    0.890708000000
 H    3.739761588837   -3.252507573351   -0.890708000000
 H    4.937052588837   -4.249411573351    0.000000000000
RB   -4.187916557436    1.195296485463    0.000000000000
