13

 C    6.114167390541    0.124625388965    0.000000000000
 H    5.647547390541    1.116792388965    0.000000000000
 H    6.751316390541    0.020208388965    0.892506000000
 H    6.751316390541    0.020208388965   -0.892506000000
 C    5.015992390541   -0.926459611035    0.000000000000
 O    3.809829390541   -0.648405611035    0.000000000000
 N    5.446921390541   -2.226608611035    0.000000000000
 H    6.439098390541   -2.420509611035    0.000000000000
 C    4.488586390541   -3.325136611035    0.000000000000
 H    3.844521390541   -3.276657611035    0.890708000000
 H    3.844521390541   -3.276657611035   -0.890708000000
 H    5.041812390541   -4.273561611035    0.000000000000
RB   -4.278045302554    1.216073659108    0.000000000000
