13

 C    6.271307093096    0.088400332439    0.000000000000
 H    5.804687093096    1.080567332439    0.000000000000
 H    6.908456093096   -0.016016667561    0.892506000000
 H    6.908456093096   -0.016016667561   -0.892506000000
 C    5.173132093096   -0.962684667561    0.000000000000
 O    3.966969093096   -0.684630667561    0.000000000000
 N    5.604061093096   -2.262833667561    0.000000000000
 H    6.596238093096   -2.456734667561    0.000000000000
 C    4.645726093096   -3.361361667561    0.000000000000
 H    4.001661093096   -3.312882667561    0.890708000000
 H    4.001661093096   -3.312882667561   -0.890708000000
 H    5.198952093096   -4.309786667561    0.000000000000
RB   -4.413238420231    1.247239419575    0.000000000000
