13

 C    6.323686993948    0.076325313597    0.000000000000
 H    5.857066993948    1.068492313597    0.000000000000
 H    6.960835993948   -0.028091686403    0.892506000000
 H    6.960835993948   -0.028091686403   -0.892506000000
 C    5.225511993948   -0.974759686403    0.000000000000
 O    4.019348993948   -0.696705686403    0.000000000000
 N    5.656440993948   -2.274908686403    0.000000000000
 H    6.648617993948   -2.468809686403    0.000000000000
 C    4.698105993948   -3.373436686403    0.000000000000
 H    4.054040993948   -3.324957686403    0.890708000000
 H    4.054040993948   -3.324957686403   -0.890708000000
 H    5.251331993948   -4.321861686403    0.000000000000
RB   -4.458302792790    1.257628006398    0.000000000000
