13

 C    6.376066894800    0.064250294755    0.000000000000
 H    5.909446894800    1.056417294755    0.000000000000
 H    7.013215894800   -0.040166705245    0.892506000000
 H    7.013215894800   -0.040166705245   -0.892506000000
 C    5.277891894800   -0.986834705245    0.000000000000
 O    4.071728894800   -0.708780705245    0.000000000000
 N    5.708820894800   -2.286983705245    0.000000000000
 H    6.700997894800   -2.480884705245    0.000000000000
 C    4.750485894800   -3.385511705245    0.000000000000
 H    4.106420894800   -3.337032705245    0.890708000000
 H    4.106420894800   -3.337032705245   -0.890708000000
 H    5.303711894800   -4.333936705245    0.000000000000
RB   -4.503367165349    1.268016593220    0.000000000000
