13

 C    6.533206597356    0.028025238229    0.000000000000
 H    6.066586597356    1.020192238229    0.000000000000
 H    7.170355597356   -0.076391761771    0.892506000000
 H    7.170355597356   -0.076391761771   -0.892506000000
 C    5.435031597356   -1.023059761771    0.000000000000
 O    4.228868597356   -0.745005761771    0.000000000000
 N    5.865960597356   -2.323208761771    0.000000000000
 H    6.858137597356   -2.517109761771    0.000000000000
 C    4.907625597356   -3.421736761771    0.000000000000
 H    4.263560597356   -3.373257761771    0.890708000000
 H    4.263560597356   -3.373257761771   -0.890708000000
 H    5.460851597356   -4.370161761771    0.000000000000
RB   -4.638560283026    1.299182353687    0.000000000000
