13

 C    6.690346299911   -0.008199818297    0.000000000000
 H    6.223726299911    0.983967181703    0.000000000000
 H    7.327495299911   -0.112616818297    0.892506000000
 H    7.327495299911   -0.112616818297   -0.892506000000
 C    5.592171299911   -1.059284818297    0.000000000000
 O    4.386008299911   -0.781230818297    0.000000000000
 N    6.023100299911   -2.359433818297    0.000000000000
 H    7.015277299911   -2.553334818297    0.000000000000
 C    5.064765299911   -3.457961818297    0.000000000000
 H    4.420700299911   -3.409482818297    0.890708000000
 H    4.420700299911   -3.409482818297   -0.890708000000
 H    5.617991299911   -4.406386818297    0.000000000000
RB   -4.773753400702    1.330348114155    0.000000000000
