13

 C    6.795106101615   -0.032349855981    0.000000000000
 H    6.328486101615    0.959817144019    0.000000000000
 H    7.432255101615   -0.136766855981    0.892506000000
 H    7.432255101615   -0.136766855981   -0.892506000000
 C    5.696931101615   -1.083434855981    0.000000000000
 O    4.490768101615   -0.805380855981    0.000000000000
 N    6.127860101615   -2.383583855981    0.000000000000
 H    7.120037101615   -2.577484855981    0.000000000000
 C    5.169525101615   -3.482111855981    0.000000000000
 H    4.525460101615   -3.433632855981    0.890708000000
 H    4.525460101615   -3.433632855981   -0.890708000000
 H    5.722751101615   -4.430536855981    0.000000000000
RB   -4.863882145820    1.351125287800    0.000000000000
