13

 C    6.952245804170   -0.068574912506    0.000000000000
 H    6.485625804170    0.923592087494    0.000000000000
 H    7.589394804170   -0.172991912506    0.892506000000
 H    7.589394804170   -0.172991912506   -0.892506000000
 C    5.854070804170   -1.119659912506    0.000000000000
 O    4.647907804170   -0.841605912506    0.000000000000
 N    6.284999804170   -2.419808912506    0.000000000000
 H    7.277176804170   -2.613709912506    0.000000000000
 C    5.326664804170   -3.518336912506    0.000000000000
 H    4.682599804170   -3.469857912506    0.890708000000
 H    4.682599804170   -3.469857912506   -0.890708000000
 H    5.879890804170   -4.466761912506    0.000000000000
RB   -4.999075263497    1.382291048267    0.000000000000
