24

 C   -4.785663543156   -0.008133882063    0.000000000000
 C   -3.803553543156   -1.147473882063    0.000000000000
 O   -4.475463543156   -2.307013882063    0.000000000000
 C   -3.692593543156   -3.520153882063    0.000000000000
 O   -2.570033543156   -1.052853882063    0.000000000000
 H   -4.268673543156    0.957296117937    0.000000000000
 H   -5.435583543156   -0.087323882063    0.883210000000
 H   -5.435583543156   -0.087323882063   -0.883210000000
 H   -4.416803543156   -4.338083882063    0.000000000000
 H   -3.060663543156   -3.554713882063    0.895660000000
 H   -3.060663543156   -3.554713882063   -0.895660000000
RB    0.499326456844    0.204556117937    2.883810000000
RB    0.499326456844    0.204556117937   -2.883810000000
 O    1.424687064485    0.583644162889    0.000000000000
 C    2.658212767517    0.678272184418    0.000000000000
 O    3.330126698613    1.837812477681    0.000000000000
 C    2.547249994406    3.050945356680    0.000000000000
 H    3.271458413126    3.868877424247    0.000000000000
 H    1.915317921928    3.085507751390   -0.895654092128
 H    1.915317921928    3.085507751390    0.895654092128
 C    3.640324153917   -0.461071902679    0.000000000000
 H    3.123331882487   -1.426499585565    0.000000000000
 H    4.290240873752   -0.381877540751   -0.883210533632
 H    4.290240873752   -0.381877540751    0.883210533632
