24

 C   -4.807214765530   -0.016962668040    0.000000000000
 C   -3.825104765530   -1.156302668040    0.000000000000
 O   -4.497014765530   -2.315842668040    0.000000000000
 C   -3.714144765530   -3.528982668040    0.000000000000
 O   -2.591584765530   -1.061682668040    0.000000000000
 H   -4.290224765530    0.948467331960    0.000000000000
 H   -5.457134765530   -0.096152668040    0.883210000000
 H   -5.457134765530   -0.096152668040   -0.883210000000
 H   -4.438354765530   -4.346912668040    0.000000000000
 H   -3.082214765530   -3.563542668040    0.895660000000
 H   -3.082214765530   -3.563542668040   -0.895660000000
RB    0.477775234470    0.195727331960    2.883810000000
RB    0.477775234470    0.195727331960   -2.883810000000
 O    1.495671902875    0.612724181407    0.000000000000
 C    2.729197605908    0.707352202937    0.000000000000
 O    3.401111537004    1.866892496199    0.000000000000
 C    2.618234832796    3.080025375199    0.000000000000
 H    3.342443251516    3.897957442766    0.000000000000
 H    1.986302760318    3.114587769909   -0.895654092128
 H    1.986302760318    3.114587769909    0.895654092128
 C    3.711308992307   -0.431991884161    0.000000000000
 H    3.194316720877   -1.397419567046    0.000000000000
 H    4.361225712142   -0.352797522232   -0.883210533632
 H    4.361225712142   -0.352797522232    0.883210533632
