24

 C   -4.828765987904   -0.025791454017    0.000000000000
 C   -3.846655987904   -1.165131454017    0.000000000000
 O   -4.518565987904   -2.324671454017    0.000000000000
 C   -3.735695987904   -3.537811454017    0.000000000000
 O   -2.613135987904   -1.070511454017    0.000000000000
 H   -4.311775987904    0.939638545983    0.000000000000
 H   -5.478685987904   -0.104981454017    0.883210000000
 H   -5.478685987904   -0.104981454017   -0.883210000000
 H   -4.459905987904   -4.355741454017    0.000000000000
 H   -3.103765987904   -3.572371454017    0.895660000000
 H   -3.103765987904   -3.572371454017   -0.895660000000
RB    0.456224012096    0.186898545983    2.883810000000
RB    0.456224012096    0.186898545983   -2.883810000000
 O    1.566656741266    0.641804199926    0.000000000000
 C    2.800182444298    0.736432221456    0.000000000000
 O    3.472096375394    1.895972514718    0.000000000000
 C    2.689219671186    3.109105393717    0.000000000000
 H    3.413428089907    3.927037461284    0.000000000000
 H    2.057287598709    3.143667788428   -0.895654092128
 H    2.057287598709    3.143667788428    0.895654092128
 C    3.782293830698   -0.402911865642    0.000000000000
 H    3.265301559267   -1.368339548527    0.000000000000
 H    4.432210550533   -0.323717503713   -0.883210533632
 H    4.432210550533   -0.323717503713    0.883210533632
