24

 C   -4.893419655025   -0.052277811946    0.000000000000
 C   -3.911309655025   -1.191617811946    0.000000000000
 O   -4.583219655025   -2.351157811946    0.000000000000
 C   -3.800349655025   -3.564297811946    0.000000000000
 O   -2.677789655025   -1.096997811946    0.000000000000
 H   -4.376429655025    0.913152188054    0.000000000000
 H   -5.543339655025   -0.131467811946    0.883210000000
 H   -5.543339655025   -0.131467811946   -0.883210000000
 H   -4.524559655025   -4.382227811946    0.000000000000
 H   -3.168419655025   -3.598857811946    0.895660000000
 H   -3.168419655025   -3.598857811946   -0.895660000000
RB    0.391570344975    0.160412188054    2.883810000000
RB    0.391570344975    0.160412188054   -2.883810000000
 O    1.779611256437    0.729044255482    0.000000000000
 C    3.013136959470    0.823672277012    0.000000000000
 O    3.685050890566    1.983212570274    0.000000000000
 C    2.902174186358    3.196345449273    0.000000000000
 H    3.626382605078    4.014277516840    0.000000000000
 H    2.270242113880    3.230907843984   -0.895654092128
 H    2.270242113880    3.230907843984    0.895654092128
 C    3.995248345869   -0.315671810086    0.000000000000
 H    3.478256074439   -1.281099492971    0.000000000000
 H    4.645165065704   -0.236477448157   -0.883210533632
 H    4.645165065704   -0.236477448157    0.883210533632
