24

 C   -4.958073322146   -0.078764169876    0.000000000000
 C   -3.975963322146   -1.218104169876    0.000000000000
 O   -4.647873322146   -2.377644169876    0.000000000000
 C   -3.865003322146   -3.590784169876    0.000000000000
 O   -2.742443322146   -1.123484169876    0.000000000000
 H   -4.441083322146    0.886665830124    0.000000000000
 H   -5.607993322146   -0.157954169876    0.883210000000
 H   -5.607993322146   -0.157954169876   -0.883210000000
 H   -4.589213322146   -4.408714169876    0.000000000000
 H   -3.233073322146   -3.625344169876    0.895660000000
 H   -3.233073322146   -3.625344169876   -0.895660000000
RB    0.326916677854    0.133925830124    2.883810000000
RB    0.326916677854    0.133925830124   -2.883810000000
 O    1.992565771608    0.816284311038    0.000000000000
 C    3.226091474641    0.910912332568    0.000000000000
 O    3.898005405737    2.070452625830    0.000000000000
 C    3.115128701529    3.283585504829    0.000000000000
 H    3.839337120249    4.101517572396    0.000000000000
 H    2.483196629051    3.318147899540   -0.895654092128
 H    2.483196629051    3.318147899540    0.895654092128
 C    4.208202861040   -0.228431754530    0.000000000000
 H    3.691210589610   -1.193859437415    0.000000000000
 H    4.858119580875   -0.149237392601   -0.883210533632
 H    4.858119580875   -0.149237392601    0.883210533632
