24

 C   -4.979624544520   -0.087592955852    0.000000000000
 C   -3.997514544520   -1.226932955852    0.000000000000
 O   -4.669424544520   -2.386472955852    0.000000000000
 C   -3.886554544520   -3.599612955852    0.000000000000
 O   -2.763994544520   -1.132312955852    0.000000000000
 H   -4.462634544520    0.877837044148    0.000000000000
 H   -5.629544544520   -0.166782955852    0.883210000000
 H   -5.629544544520   -0.166782955852   -0.883210000000
 H   -4.610764544520   -4.417542955852    0.000000000000
 H   -3.254624544520   -3.634172955852    0.895660000000
 H   -3.254624544520   -3.634172955852   -0.895660000000
RB    0.305365455480    0.125097044148    2.883810000000
RB    0.305365455480    0.125097044148   -2.883810000000
 O    2.063550609999    0.845364329557    0.000000000000
 C    3.297076313031    0.939992351087    0.000000000000
 O    3.968990244127    2.099532644349    0.000000000000
 C    3.186113539919    3.312665523348    0.000000000000
 H    3.910321958640    4.130597590915    0.000000000000
 H    2.554181467441    3.347227918059   -0.895654092128
 H    2.554181467441    3.347227918059    0.895654092128
 C    4.279187699431   -0.199351736011    0.000000000000
 H    3.762195428000   -1.164779418897    0.000000000000
 H    4.929104419266   -0.120157374083   -0.883210533632
 H    4.929104419266   -0.120157374083    0.883210533632
