24

 C   -6.725273556790   -0.802724619951    0.000000000000
 C   -5.743163556790   -1.942064619951    0.000000000000
 O   -6.415073556790   -3.101604619951    0.000000000000
 C   -5.632203556790   -4.314744619951    0.000000000000
 O   -4.509643556790   -1.847444619951    0.000000000000
 H   -6.208283556790    0.162705380049    0.000000000000
 H   -7.375193556790   -0.881914619951    0.883210000000
 H   -7.375193556790   -0.881914619951   -0.883210000000
 H   -6.356413556790   -5.132674619951    0.000000000000
 H   -5.000273556790   -4.349304619951    0.895660000000
 H   -5.000273556790   -4.349304619951   -0.895660000000
RB   -1.440283556790   -0.590034619951    2.883810000000
RB   -1.440283556790   -0.590034619951   -2.883810000000
 O    7.813322519624    3.200845829570    0.000000000000
 C    9.046848222656    3.295473851100    0.000000000000
 O    9.718762153752    4.455014144362    0.000000000000
 C    8.935885449544    5.668147023361    0.000000000000
 H    9.660093868264    6.486079090929    0.000000000000
 H    8.303953377066    5.702709418072   -0.895654092128
 H    8.303953377066    5.702709418072    0.895654092128
 C   10.028959609055    2.156129764002    0.000000000000
 H    9.511967337625    1.190702081117    0.000000000000
 H   10.678876328890    2.235324125931   -0.883210533632
 H   10.678876328890    2.235324125931    0.883210533632
