24

 C   -5.001175766893   -0.096421741829    0.000000000000
 C   -4.019065766893   -1.235761741829    0.000000000000
 O   -4.690975766893   -2.395301741829    0.000000000000
 C   -3.908105766893   -3.608441741829    0.000000000000
 O   -2.785545766893   -1.141141741829    0.000000000000
 H   -4.484185766893    0.869008258171    0.000000000000
 H   -5.651095766893   -0.175611741829    0.883210000000
 H   -5.651095766893   -0.175611741829   -0.883210000000
 H   -4.632315766893   -4.426371741829    0.000000000000
 H   -3.276175766893   -3.643001741829    0.895660000000
 H   -3.276175766893   -3.643001741829   -0.895660000000
RB    0.283814233107    0.116268258171    2.883810000000
RB    0.283814233107    0.116268258171   -2.883810000000
 O    2.134535448389    0.874444348075    0.000000000000
 C    3.368061151422    0.969072369605    0.000000000000
 O    4.039975082518    2.128612662868    0.000000000000
 C    3.257098378310    3.341745541867    0.000000000000
 H    3.981306797030    4.159677609434    0.000000000000
 H    2.625166305832    3.376307936577   -0.895654092128
 H    2.625166305832    3.376307936577    0.895654092128
 C    4.350172537821   -0.170271717493    0.000000000000
 H    3.833180266391   -1.135699400378    0.000000000000
 H    5.000089257656   -0.091077355564   -0.883210533632
 H    5.000089257656   -0.091077355564    0.883210533632
