24

 C   -5.044278211641   -0.114079313782    0.000000000000
 C   -4.062168211641   -1.253419313782    0.000000000000
 O   -4.734078211641   -2.412959313782    0.000000000000
 C   -3.951208211641   -3.626099313782    0.000000000000
 O   -2.828648211641   -1.158799313782    0.000000000000
 H   -4.527288211641    0.851350686218    0.000000000000
 H   -5.694198211641   -0.193269313782    0.883210000000
 H   -5.694198211641   -0.193269313782   -0.883210000000
 H   -4.675418211641   -4.444029313782    0.000000000000
 H   -3.319278211641   -3.660659313782    0.895660000000
 H   -3.319278211641   -3.660659313782   -0.895660000000
RB    0.240711788359    0.098610686218    2.883810000000
RB    0.240711788359    0.098610686218   -2.883810000000
 O    2.276505125170    0.932604385113    0.000000000000
 C    3.510030828203    1.027232406643    0.000000000000
 O    4.181944759299    2.186772699905    0.000000000000
 C    3.399068055091    3.399905578904    0.000000000000
 H    4.123276473811    4.217837646471    0.000000000000
 H    2.767135982613    3.434467973615   -0.895654092128
 H    2.767135982613    3.434467973615    0.895654092128
 C    4.492142214602   -0.112111680455    0.000000000000
 H    3.975149943172   -1.077539363341    0.000000000000
 H    5.142058934437   -0.032917318527   -0.883210533632
 H    5.142058934437   -0.032917318527    0.883210533632
