24

 C   -5.108931878762   -0.140565671711    0.000000000000
 C   -4.126821878762   -1.279905671711    0.000000000000
 O   -4.798731878762   -2.439445671711    0.000000000000
 C   -4.015861878762   -3.652585671711    0.000000000000
 O   -2.893301878762   -1.185285671711    0.000000000000
 H   -4.591941878762    0.824864328289    0.000000000000
 H   -5.758851878762   -0.219755671711    0.883210000000
 H   -5.758851878762   -0.219755671711   -0.883210000000
 H   -4.740071878762   -4.470515671711    0.000000000000
 H   -3.383931878762   -3.687145671711    0.895660000000
 H   -3.383931878762   -3.687145671711   -0.895660000000
RB    0.176058121238    0.072124328289    2.883810000000
RB    0.176058121238    0.072124328289   -2.883810000000
 O    2.489459640341    1.019844440669    0.000000000000
 C    3.722985343374    1.114472462199    0.000000000000
 O    4.394899274470    2.274012755461    0.000000000000
 C    3.612022570262    3.487145634460    0.000000000000
 H    4.336230988982    4.305077702027    0.000000000000
 H    2.980090497784    3.521708029171   -0.895654092128
 H    2.980090497784    3.521708029171    0.895654092128
 C    4.705096729773   -0.024871624899    0.000000000000
 H    4.188104458343   -0.990299307784    0.000000000000
 H    5.355013449608    0.054322737030   -0.883210533632
 H    5.355013449608    0.054322737030    0.883210533632
