24

 C   -5.152034323509   -0.158223243665    0.000000000000
 C   -4.169924323509   -1.297563243665    0.000000000000
 O   -4.841834323509   -2.457103243665    0.000000000000
 C   -4.058964323509   -3.670243243665    0.000000000000
 O   -2.936404323509   -1.202943243665    0.000000000000
 H   -4.635044323509    0.807206756335    0.000000000000
 H   -5.801954323509   -0.237413243665    0.883210000000
 H   -5.801954323509   -0.237413243665   -0.883210000000
 H   -4.783174323509   -4.488173243665    0.000000000000
 H   -3.427034323509   -3.704803243665    0.895660000000
 H   -3.427034323509   -3.704803243665   -0.895660000000
RB    0.132955676491    0.054466756335    2.883810000000
RB    0.132955676491    0.054466756335   -2.883810000000
 O    2.631429317122    1.078004477706    0.000000000000
 C    3.864955020155    1.172632499236    0.000000000000
 O    4.536868951251    2.332172792498    0.000000000000
 C    3.753992247043    3.545305671497    0.000000000000
 H    4.478200665763    4.363237739065    0.000000000000
 H    3.122060174565    3.579868066208   -0.895654092128
 H    3.122060174565    3.579868066208    0.895654092128
 C    4.847066406554    0.033288412138    0.000000000000
 H    4.330074135124   -0.932139270747    0.000000000000
 H    5.496983126389    0.112482774067   -0.883210533632
 H    5.496983126389    0.112482774067    0.883210533632
