24

 C   -5.259790435378   -0.202367173547    0.000000000000
 C   -4.277680435378   -1.341707173547    0.000000000000
 O   -4.949590435378   -2.501247173547    0.000000000000
 C   -4.166720435378   -3.714387173547    0.000000000000
 O   -3.044160435378   -1.247087173547    0.000000000000
 H   -4.742800435378    0.763062826453    0.000000000000
 H   -5.909710435378   -0.281557173547    0.883210000000
 H   -5.909710435378   -0.281557173547   -0.883210000000
 H   -4.890930435378   -4.532317173547    0.000000000000
 H   -3.534790435378   -3.748947173547    0.895660000000
 H   -3.534790435378   -3.748947173547   -0.895660000000
RB    0.025199564622    0.010322826453    2.883810000000
RB    0.025199564622    0.010322826453   -2.883810000000
 O    2.986353509074    1.223404570300    0.000000000000
 C    4.219879212107    1.318032591829    0.000000000000
 O    4.891793143203    2.477572885092    0.000000000000
 C    4.108916438995    3.690705764091    0.000000000000
 H    4.833124857715    4.508637831658    0.000000000000
 H    3.476984366517    3.725268158801   -0.895654092128
 H    3.476984366517    3.725268158801    0.895654092128
 C    5.201990598506    0.178688504732    0.000000000000
 H    4.684998327076   -0.786739178154    0.000000000000
 H    5.851907318341    0.257882866660   -0.883210533632
 H    5.851907318341    0.257882866660    0.883210533632
