24

 C   -5.345995324873   -0.237682317453    0.000000000000
 C   -4.363885324873   -1.377022317453    0.000000000000
 O   -5.035795324873   -2.536562317453    0.000000000000
 C   -4.252925324873   -3.749702317453    0.000000000000
 O   -3.130365324873   -1.282402317453    0.000000000000
 H   -4.829005324873    0.727747682547    0.000000000000
 H   -5.995915324873   -0.316872317453    0.883210000000
 H   -5.995915324873   -0.316872317453   -0.883210000000
 H   -4.977135324873   -4.567632317453    0.000000000000
 H   -3.620995324873   -3.784262317453    0.895660000000
 H   -3.620995324873   -3.784262317453   -0.895660000000
RB   -0.061005324873   -0.024992317453    2.883810000000
RB   -0.061005324873   -0.024992317453   -2.883810000000
 O    3.270292862636    1.339724644374    0.000000000000
 C    4.503818565669    1.434352665904    0.000000000000
 O    5.175732496765    2.593892959167    0.000000000000
 C    4.392855792557    3.807025838166    0.000000000000
 H    5.117064211277    4.624957905733    0.000000000000
 H    3.760923720079    3.841588232876   -0.895654092128
 H    3.760923720079    3.841588232876    0.895654092128
 C    5.485929952068    0.295008578806    0.000000000000
 H    4.968937680638   -0.670419104079    0.000000000000
 H    6.135846671903    0.374202940735   -0.883210533632
 H    6.135846671903    0.374202940735    0.883210533632
