24

 C   -5.410648991994   -0.264168675383    0.000000000000
 C   -4.428538991994   -1.403508675383    0.000000000000
 O   -5.100448991994   -2.563048675383    0.000000000000
 C   -4.317578991994   -3.776188675383    0.000000000000
 O   -3.195018991994   -1.308888675383    0.000000000000
 H   -4.893658991994    0.701261324617    0.000000000000
 H   -6.060568991994   -0.343358675383    0.883210000000
 H   -6.060568991994   -0.343358675383   -0.883210000000
 H   -5.041788991994   -4.594118675383    0.000000000000
 H   -3.685648991994   -3.810748675383    0.895660000000
 H   -3.685648991994   -3.810748675383   -0.895660000000
RB   -0.125658991994   -0.051478675383    2.883810000000
RB   -0.125658991994   -0.051478675383   -2.883810000000
 O    3.483247377807    1.426964699930    0.000000000000
 C    4.716773080840    1.521592721460    0.000000000000
 O    5.388687011936    2.681133014723    0.000000000000
 C    4.605810307728    3.894265893722    0.000000000000
 H    5.330018726448    4.712197961289    0.000000000000
 H    3.973878235250    3.928828288432   -0.895654092128
 H    3.973878235250    3.928828288432    0.895654092128
 C    5.698884467239    0.382248634362    0.000000000000
 H    5.181892195809   -0.583179048523    0.000000000000
 H    6.348801187074    0.461442996291   -0.883210533632
 H    6.348801187074    0.461442996291    0.883210533632
