24

 C   -5.453751436741   -0.281826247336    0.000000000000
 C   -4.471641436741   -1.421166247336    0.000000000000
 O   -5.143551436741   -2.580706247336    0.000000000000
 C   -4.360681436741   -3.793846247336    0.000000000000
 O   -3.238121436741   -1.326546247336    0.000000000000
 H   -4.936761436741    0.683603752664    0.000000000000
 H   -6.103671436741   -0.361016247336    0.883210000000
 H   -6.103671436741   -0.361016247336   -0.883210000000
 H   -5.084891436741   -4.611776247336    0.000000000000
 H   -3.728751436741   -3.828406247336    0.895660000000
 H   -3.728751436741   -3.828406247336   -0.895660000000
RB   -0.168761436741   -0.069136247336    2.883810000000
RB   -0.168761436741   -0.069136247336   -2.883810000000
 O    3.625217054588    1.485124736968    0.000000000000
 C    4.858742757621    1.579752758498    0.000000000000
 O    5.530656688717    2.739293051760    0.000000000000
 C    4.747779984509    3.952425930759    0.000000000000
 H    5.471988403229    4.770357998326    0.000000000000
 H    4.115847912031    3.986988325470   -0.895654092128
 H    4.115847912031    3.986988325470    0.895654092128
 C    5.840854144020    0.440408671400    0.000000000000
 H    5.323861872590   -0.525019011486    0.000000000000
 H    6.490770863855    0.519603033328   -0.883210533632
 H    6.490770863855    0.519603033328    0.883210533632
