24

 C   -5.604609993357   -0.343627749172    0.000000000000
 C   -4.622499993357   -1.482967749172    0.000000000000
 O   -5.294409993357   -2.642507749172    0.000000000000
 C   -4.511539993357   -3.855647749172    0.000000000000
 O   -3.388979993357   -1.388347749172    0.000000000000
 H   -5.087619993357    0.621802250828    0.000000000000
 H   -6.254529993357   -0.422817749172    0.883210000000
 H   -6.254529993357   -0.422817749172   -0.883210000000
 H   -5.235749993357   -4.673577749172    0.000000000000
 H   -3.879609993357   -3.890207749172    0.895660000000
 H   -3.879609993357   -3.890207749172   -0.895660000000
RB   -0.319619993357   -0.130937749172    2.883810000000
RB   -0.319619993357   -0.130937749172   -2.883810000000
 O    4.122110923321    1.688684866599    0.000000000000
 C    5.355636626354    1.783312888128    0.000000000000
 O    6.027550557450    2.942853181391    0.000000000000
 C    5.244673853242    4.155986060390    0.000000000000
 H    5.968882271962    4.973918127957    0.000000000000
 H    4.612741780764    4.190548455100   -0.895654092128
 H    4.612741780764    4.190548455100    0.895654092128
 C    6.337748012753    0.643968801031    0.000000000000
 H    5.820755741323   -0.321458881855    0.000000000000
 H    6.987664732588    0.723163162959   -0.883210533632
 H    6.987664732588    0.723163162959    0.883210533632
