24

 C   -5.669263660478   -0.370114107101    0.000000000000
 C   -4.687153660478   -1.509454107101    0.000000000000
 O   -5.359063660478   -2.668994107101    0.000000000000
 C   -4.576193660478   -3.882134107101    0.000000000000
 O   -3.453633660478   -1.414834107101    0.000000000000
 H   -5.152273660478    0.595315892899    0.000000000000
 H   -6.319183660478   -0.449304107101    0.883210000000
 H   -6.319183660478   -0.449304107101   -0.883210000000
 H   -5.300403660478   -4.700064107101    0.000000000000
 H   -3.944263660478   -3.916694107101    0.895660000000
 H   -3.944263660478   -3.916694107101   -0.895660000000
RB   -0.384273660478   -0.157424107101    2.883810000000
RB   -0.384273660478   -0.157424107101   -2.883810000000
 O    4.335065438493    1.775924922155    0.000000000000
 C    5.568591141525    1.870552943684    0.000000000000
 O    6.240505072621    3.030093236947    0.000000000000
 C    5.457628368413    4.243226115946    0.000000000000
 H    6.181836787133    5.061158183513    0.000000000000
 H    4.825696295935    4.277788510656   -0.895654092128
 H    4.825696295935    4.277788510656    0.895654092128
 C    6.550702527924    0.731208856587    0.000000000000
 H    6.033710256494   -0.234218826299    0.000000000000
 H    7.200619247759    0.810403218515   -0.883210533632
 H    7.200619247759    0.810403218515    0.883210533632
