24

 C   -5.712366105226   -0.387771679054    0.000000000000
 C   -4.730256105226   -1.527111679054    0.000000000000
 O   -5.402166105226   -2.686651679054    0.000000000000
 C   -4.619296105226   -3.899791679054    0.000000000000
 O   -3.496736105226   -1.432491679054    0.000000000000
 H   -5.195376105226    0.577658320946    0.000000000000
 H   -6.362286105226   -0.466961679054    0.883210000000
 H   -6.362286105226   -0.466961679054   -0.883210000000
 H   -5.343506105226   -4.717721679054    0.000000000000
 H   -3.987366105226   -3.934351679054    0.895660000000
 H   -3.987366105226   -3.934351679054   -0.895660000000
RB   -0.427376105226   -0.175081679054    2.883810000000
RB   -0.427376105226   -0.175081679054   -2.883810000000
 O    4.477035115273    1.834084959192    0.000000000000
 C    5.710560818306    1.928712980722    0.000000000000
 O    6.382474749402    3.088253273984    0.000000000000
 C    5.599598045194    4.301386152983    0.000000000000
 H    6.323806463914    5.119318220550    0.000000000000
 H    4.967665972716    4.335948547694   -0.895654092128
 H    4.967665972716    4.335948547694    0.895654092128
 C    6.692672204705    0.789368893624    0.000000000000
 H    6.175679933275   -0.176058789261    0.000000000000
 H    7.342588924540    0.868563255553   -0.883210533632
 H    7.342588924540    0.868563255553    0.883210533632
