24

 C   -5.884775884215   -0.458401966867    0.000000000000
 C   -4.902665884215   -1.597741966867    0.000000000000
 O   -5.574575884215   -2.757281966867    0.000000000000
 C   -4.791705884215   -3.970421966867    0.000000000000
 O   -3.669145884215   -1.503121966867    0.000000000000
 H   -5.367785884215    0.507028033133    0.000000000000
 H   -6.534695884215   -0.537591966867    0.883210000000
 H   -6.534695884215   -0.537591966867   -0.883210000000
 H   -5.515915884215   -4.788351966867    0.000000000000
 H   -4.159775884215   -4.004981966867    0.895660000000
 H   -4.159775884215   -4.004981966867   -0.895660000000
RB   -0.599785884215   -0.245711966867    2.883810000000
RB   -0.599785884215   -0.245711966867   -2.883810000000
 O    5.044913822397    2.066725107342    0.000000000000
 C    6.278439525429    2.161353128871    0.000000000000
 O    6.950353456525    3.320893422134    0.000000000000
 C    6.167476752317    4.534026301133    0.000000000000
 H    6.891685171038    5.351958368700    0.000000000000
 H    5.535544679839    4.568588695843   -0.895654092128
 H    5.535544679839    4.568588695843    0.895654092128
 C    7.260550911829    1.022009041774    0.000000000000
 H    6.743558640398    0.056581358888    0.000000000000
 H    7.910467631663    1.101203403702   -0.883210533632
 H    7.910467631663    1.101203403702    0.883210533632
