24

 C   -5.906327106589   -0.467230752843    0.000000000000
 C   -4.924217106589   -1.606570752843    0.000000000000
 O   -5.596127106589   -2.766110752843    0.000000000000
 C   -4.813257106589   -3.979250752843    0.000000000000
 O   -3.690697106589   -1.511950752843    0.000000000000
 H   -5.389337106589    0.498199247157    0.000000000000
 H   -6.556247106589   -0.546420752843    0.883210000000
 H   -6.556247106589   -0.546420752843   -0.883210000000
 H   -5.537467106589   -4.797180752843    0.000000000000
 H   -4.181327106589   -4.013810752843    0.895660000000
 H   -4.181327106589   -4.013810752843   -0.895660000000
RB   -0.621337106589   -0.254540752843    2.883810000000
RB   -0.621337106589   -0.254540752843   -2.883810000000
 O    5.115898660787    2.095805125860    0.000000000000
 C    6.349424363820    2.190433147390    0.000000000000
 O    7.021338294916    3.349973440652    0.000000000000
 C    6.238461590708    4.563106319651    0.000000000000
 H    6.962670009428    5.381038387219    0.000000000000
 H    5.606529518230    4.597668714362   -0.895654092128
 H    5.606529518230    4.597668714362    0.895654092128
 C    7.331535750219    1.051089060292    0.000000000000
 H    6.814543478789    0.085661377407    0.000000000000
 H    7.981452470054    1.130283422221   -0.883210533632
 H    7.981452470054    1.130283422221    0.883210533632
