24

 C   -5.970980773710   -0.493717110773    0.000000000000
 C   -4.988870773710   -1.633057110773    0.000000000000
 O   -5.660780773710   -2.792597110773    0.000000000000
 C   -4.877910773710   -4.005737110773    0.000000000000
 O   -3.755350773710   -1.538437110773    0.000000000000
 H   -5.453990773710    0.471712889227    0.000000000000
 H   -6.620900773710   -0.572907110773    0.883210000000
 H   -6.620900773710   -0.572907110773   -0.883210000000
 H   -5.602120773710   -4.823667110773    0.000000000000
 H   -4.245980773710   -4.040297110773    0.895660000000
 H   -4.245980773710   -4.040297110773   -0.895660000000
RB   -0.685990773710   -0.281027110773    2.883810000000
RB   -0.685990773710   -0.281027110773   -2.883810000000
 O    5.328853175959    2.183045181416    0.000000000000
 C    6.562378878991    2.277673202946    0.000000000000
 O    7.234292810087    3.437213496208    0.000000000000
 C    6.451416105879    4.650346375207    0.000000000000
 H    7.175624524599    5.468278442775    0.000000000000
 H    5.819484033401    4.684908769918   -0.895654092128
 H    5.819484033401    4.684908769918    0.895654092128
 C    7.544490265390    1.138329115848    0.000000000000
 H    7.027497993960    0.172901432963    0.000000000000
 H    8.194406985225    1.217523477777   -0.883210533632
 H    8.194406985225    1.217523477777    0.883210533632
