24

 C   -6.035634440831   -0.520203468702    0.000000000000
 C   -5.053524440831   -1.659543468702    0.000000000000
 O   -5.725434440831   -2.819083468702    0.000000000000
 C   -4.942564440831   -4.032223468702    0.000000000000
 O   -3.820004440831   -1.564923468702    0.000000000000
 H   -5.518644440831    0.445226531298    0.000000000000
 H   -6.685554440831   -0.599393468702    0.883210000000
 H   -6.685554440831   -0.599393468702   -0.883210000000
 H   -5.666774440831   -4.850153468702    0.000000000000
 H   -4.310634440831   -4.066783468702    0.895660000000
 H   -4.310634440831   -4.066783468702   -0.895660000000
RB   -0.750644440831   -0.307513468702    2.883810000000
RB   -0.750644440831   -0.307513468702   -2.883810000000
 O    5.541807691130    2.270285236972    0.000000000000
 C    6.775333394162    2.364913258502    0.000000000000
 O    7.447247325258    3.524453551764    0.000000000000
 C    6.664370621050    4.737586430764    0.000000000000
 H    7.388579039771    5.555518498331    0.000000000000
 H    6.032438548572    4.772148825474   -0.895654092128
 H    6.032438548572    4.772148825474    0.895654092128
 C    7.757444780562    1.225569171404    0.000000000000
 H    7.240452509131    0.260141488519    0.000000000000
 H    8.407361500396    1.304763533333   -0.883210533632
 H    8.407361500396    1.304763533333    0.883210533632
