24

 C   -6.057185663205   -0.529032254679    0.000000000000
 C   -5.075075663205   -1.668372254679    0.000000000000
 O   -5.746985663205   -2.827912254679    0.000000000000
 C   -4.964115663205   -4.041052254679    0.000000000000
 O   -3.841555663205   -1.573752254679    0.000000000000
 H   -5.540195663205    0.436397745321    0.000000000000
 H   -6.707105663205   -0.608222254679    0.883210000000
 H   -6.707105663205   -0.608222254679   -0.883210000000
 H   -5.688325663205   -4.858982254679    0.000000000000
 H   -4.332185663205   -4.075612254679    0.895660000000
 H   -4.332185663205   -4.075612254679   -0.895660000000
RB   -0.772195663205   -0.316342254679    2.883810000000
RB   -0.772195663205   -0.316342254679   -2.883810000000
 O    5.612792529520    2.299365255491    0.000000000000
 C    6.846318232553    2.393993277021    0.000000000000
 O    7.518232163649    3.553533570283    0.000000000000
 C    6.735355459441    4.766666449282    0.000000000000
 H    7.459563878161    5.584598516849    0.000000000000
 H    6.103423386963    4.801228843993   -0.895654092128
 H    6.103423386963    4.801228843993    0.895654092128
 C    7.828429618952    1.254649189923    0.000000000000
 H    7.311437347522    0.289221507038    0.000000000000
 H    8.478346338787    1.333843551852   -0.883210533632
 H    8.478346338787    1.333843551852    0.883210533632
