24

 C   -6.078736885579   -0.537861040655    0.000000000000
 C   -5.096626885579   -1.677201040655    0.000000000000
 O   -5.768536885579   -2.836741040655    0.000000000000
 C   -4.985666885579   -4.049881040655    0.000000000000
 O   -3.863106885579   -1.582581040655    0.000000000000
 H   -5.561746885579    0.427568959345    0.000000000000
 H   -6.728656885579   -0.617051040655    0.883210000000
 H   -6.728656885579   -0.617051040655   -0.883210000000
 H   -5.709876885579   -4.867811040655    0.000000000000
 H   -4.353736885579   -4.084441040655    0.895660000000
 H   -4.353736885579   -4.084441040655   -0.895660000000
RB   -0.793746885579   -0.325171040655    2.883810000000
RB   -0.793746885579   -0.325171040655   -2.883810000000
 O    5.683777367911    2.328445274010    0.000000000000
 C    6.917303070943    2.423073295539    0.000000000000
 O    7.589217002039    3.582613588802    0.000000000000
 C    6.806340297831    4.795746467801    0.000000000000
 H    7.530548716551    5.613678535368    0.000000000000
 H    6.174408225353    4.830308862511   -0.895654092128
 H    6.174408225353    4.830308862511    0.895654092128
 C    7.899414457342    1.283729208442    0.000000000000
 H    7.382422185912    0.318301525556    0.000000000000
 H    8.549331177177    1.362923570370   -0.883210533632
 H    8.549331177177    1.362923570370    0.883210533632
