24

 C   -6.208044219821   -0.590833756514    0.000000000000
 C   -5.225934219821   -1.730173756514    0.000000000000
 O   -5.897844219821   -2.889713756514    0.000000000000
 C   -5.114974219821   -4.102853756514    0.000000000000
 O   -3.992414219821   -1.635553756514    0.000000000000
 H   -5.691054219821    0.374596243486    0.000000000000
 H   -6.857964219821   -0.670023756514    0.883210000000
 H   -6.857964219821   -0.670023756514   -0.883210000000
 H   -5.839184219821   -4.920783756514    0.000000000000
 H   -4.483044219821   -4.137413756514    0.895660000000
 H   -4.483044219821   -4.137413756514   -0.895660000000
RB   -0.923054219821   -0.378143756514    2.883810000000
RB   -0.923054219821   -0.378143756514   -2.883810000000
 O    6.109686398253    2.502925385122    0.000000000000
 C    7.343212101286    2.597553406652    0.000000000000
 O    8.015126032382    3.757093699914    0.000000000000
 C    7.232249328174    4.970226578913    0.000000000000
 H    7.956457746894    5.788158646480    0.000000000000
 H    6.600317255696    5.004788973624   -0.895654092128
 H    6.600317255696    5.004788973624    0.895654092128
 C    8.325323487685    1.458209319554    0.000000000000
 H    7.808331216255    0.492781636668    0.000000000000
 H    8.975240207520    1.537403681482   -0.883210533632
 H    8.975240207520    1.537403681482    0.883210533632
