24

 C   -6.229595442195   -0.599662542491    0.000000000000
 C   -5.247485442195   -1.739002542491    0.000000000000
 O   -5.919395442195   -2.898542542491    0.000000000000
 C   -5.136525442195   -4.111682542491    0.000000000000
 O   -4.013965442195   -1.644382542491    0.000000000000
 H   -5.712605442195    0.365767457509    0.000000000000
 H   -6.879515442195   -0.678852542491    0.883210000000
 H   -6.879515442195   -0.678852542491   -0.883210000000
 H   -5.860735442195   -4.929612542491    0.000000000000
 H   -4.504595442195   -4.146242542491    0.895660000000
 H   -4.504595442195   -4.146242542491   -0.895660000000
RB   -0.944605442195   -0.386972542491    2.883810000000
RB   -0.944605442195   -0.386972542491   -2.883810000000
 O    6.180671236644    2.532005403640    0.000000000000
 C    7.414196939676    2.626633425170    0.000000000000
 O    8.086110870772    3.786173718433    0.000000000000
 C    7.303234166564    4.999306597432    0.000000000000
 H    8.027442585284    5.817238664999    0.000000000000
 H    6.671302094086    5.033868992142   -0.895654092128
 H    6.671302094086    5.033868992142    0.895654092128
 C    8.396308326075    1.487289338072    0.000000000000
 H    7.879316054645    0.521861655187    0.000000000000
 H    9.046225045910    1.566483700001   -0.883210533632
 H    9.046225045910    1.566483700001    0.883210533632
