24

 C   -6.251146664568   -0.608491328468    0.000000000000
 C   -5.269036664568   -1.747831328468    0.000000000000
 O   -5.940946664568   -2.907371328468    0.000000000000
 C   -5.158076664568   -4.120511328468    0.000000000000
 O   -4.035516664568   -1.653211328468    0.000000000000
 H   -5.734156664568    0.356938671532    0.000000000000
 H   -6.901066664568   -0.687681328468    0.883210000000
 H   -6.901066664568   -0.687681328468   -0.883210000000
 H   -5.882286664568   -4.938441328468    0.000000000000
 H   -4.526146664568   -4.155071328468    0.895660000000
 H   -4.526146664568   -4.155071328468   -0.895660000000
RB   -0.966156664568   -0.395801328468    2.883810000000
RB   -0.966156664568   -0.395801328468   -2.883810000000
 O    6.251656075034    2.561085422159    0.000000000000
 C    7.485181778066    2.655713443689    0.000000000000
 O    8.157095709163    3.815253736951    0.000000000000
 C    7.374219004955    5.028386615950    0.000000000000
 H    8.098427423675    5.846318683517    0.000000000000
 H    6.742286932477    5.062949010661   -0.895654092128
 H    6.742286932477    5.062949010661    0.895654092128
 C    8.467293164466    1.516369356591    0.000000000000
 H    7.950300893036    0.550941673706    0.000000000000
 H    9.117209884301    1.595563718520   -0.883210533632
 H    9.117209884301    1.595563718520    0.883210533632
