24

 C   -6.272697886942   -0.617320114444    0.000000000000
 C   -5.290587886942   -1.756660114444    0.000000000000
 O   -5.962497886942   -2.916200114444    0.000000000000
 C   -5.179627886942   -4.129340114444    0.000000000000
 O   -4.057067886942   -1.662040114444    0.000000000000
 H   -5.755707886942    0.348109885556    0.000000000000
 H   -6.922617886942   -0.696510114444    0.883210000000
 H   -6.922617886942   -0.696510114444   -0.883210000000
 H   -5.903837886942   -4.947270114444    0.000000000000
 H   -4.547697886942   -4.163900114444    0.895660000000
 H   -4.547697886942   -4.163900114444   -0.895660000000
RB   -0.987707886942   -0.404630114444    2.883810000000
RB   -0.987707886942   -0.404630114444   -2.883810000000
 O    6.322640913425    2.590165440678    0.000000000000
 C    7.556166616457    2.684793462208    0.000000000000
 O    8.228080547553    3.844333755470    0.000000000000
 C    7.445203843345    5.057466634469    0.000000000000
 H    8.169412262065    5.875398702036    0.000000000000
 H    6.813271770867    5.092029029180   -0.895654092128
 H    6.813271770867    5.092029029180    0.895654092128
 C    8.538278002856    1.545449375110    0.000000000000
 H    8.021285731426    0.580021692224    0.000000000000
 H    9.188194722691    1.624643737038   -0.883210533632
 H    9.188194722691    1.624643737038    0.883210533632
