24

 C   -6.315800331689   -0.634977686397    0.000000000000
 C   -5.333690331689   -1.774317686397    0.000000000000
 O   -6.005600331689   -2.933857686397    0.000000000000
 C   -5.222730331689   -4.146997686397    0.000000000000
 O   -4.100170331689   -1.679697686397    0.000000000000
 H   -5.798810331689    0.330452313603    0.000000000000
 H   -6.965720331689   -0.714167686397    0.883210000000
 H   -6.965720331689   -0.714167686397   -0.883210000000
 H   -5.946940331689   -4.964927686397    0.000000000000
 H   -4.590800331689   -4.181557686397    0.895660000000
 H   -4.590800331689   -4.181557686397   -0.895660000000
RB   -1.030810331689   -0.422287686397    2.883810000000
RB   -1.030810331689   -0.422287686397   -2.883810000000
 O    6.464610590205    2.648325477715    0.000000000000
 C    7.698136293238    2.742953499245    0.000000000000
 O    8.370050224334    3.902493792507    0.000000000000
 C    7.587173520126    5.115626671506    0.000000000000
 H    8.311381938846    5.933558739074    0.000000000000
 H    6.955241447648    5.150189066217   -0.895654092128
 H    6.955241447648    5.150189066217    0.895654092128
 C    8.680247679637    1.603609412147    0.000000000000
 H    8.163255408207    0.638181729262    0.000000000000
 H    9.330164399472    1.682803774076   -0.883210533632
 H    9.330164399472    1.682803774076    0.883210533632
