24

 C   -6.337351554063   -0.643806472374    0.000000000000
 C   -5.355241554063   -1.783146472374    0.000000000000
 O   -6.027151554063   -2.942686472374    0.000000000000
 C   -5.244281554063   -4.155826472374    0.000000000000
 O   -4.121721554063   -1.688526472374    0.000000000000
 H   -5.820361554063    0.321623527626    0.000000000000
 H   -6.987271554063   -0.722996472374    0.883210000000
 H   -6.987271554063   -0.722996472374   -0.883210000000
 H   -5.968491554063   -4.973756472374    0.000000000000
 H   -4.612351554063   -4.190386472374    0.895660000000
 H   -4.612351554063   -4.190386472374   -0.895660000000
RB   -1.052361554063   -0.431116472374    2.883810000000
RB   -1.052361554063   -0.431116472374   -2.883810000000
 O    6.535595428596    2.677405496234    0.000000000000
 C    7.769121131628    2.772033517764    0.000000000000
 O    8.441035062724    3.931573811026    0.000000000000
 C    7.658158358516    5.144706690025    0.000000000000
 H    8.382366777237    5.962638757592    0.000000000000
 H    7.026226286038    5.179269084736   -0.895654092128
 H    7.026226286038    5.179269084736    0.895654092128
 C    8.751232518028    1.632689430666    0.000000000000
 H    8.234240246597    0.667261747780    0.000000000000
 H    9.401149237862    1.711883792595   -0.883210533632
 H    9.401149237862    1.711883792595    0.883210533632
