24

 C   -6.466658888305   -0.696779188233    0.000000000000
 C   -5.484548888305   -1.836119188233    0.000000000000
 O   -6.156458888305   -2.995659188233    0.000000000000
 C   -5.373588888305   -4.208799188233    0.000000000000
 O   -4.251028888305   -1.741499188233    0.000000000000
 H   -5.949668888305    0.268650811767    0.000000000000
 H   -7.116578888305   -0.775969188233    0.883210000000
 H   -7.116578888305   -0.775969188233   -0.883210000000
 H   -6.097798888305   -5.026729188233    0.000000000000
 H   -4.741658888305   -4.243359188233    0.895660000000
 H   -4.741658888305   -4.243359188233   -0.895660000000
RB   -1.181668888305   -0.484089188233    2.883810000000
RB   -1.181668888305   -0.484089188233   -2.883810000000
 O    6.961504458938    2.851885607346    0.000000000000
 C    8.195030161971    2.946513628876    0.000000000000
 O    8.866944093067    4.106053922138    0.000000000000
 C    8.084067388859    5.319186801137    0.000000000000
 H    8.808275807579    6.137118868704    0.000000000000
 H    7.452135316381    5.353749195848   -0.895654092128
 H    7.452135316381    5.353749195848    0.895654092128
 C    9.177141548370    1.807169541778    0.000000000000
 H    8.660149276940    0.841741858893    0.000000000000
 H    9.827058268205    1.886363903707   -0.883210533632
 H    9.827058268205    1.886363903707    0.883210533632
