24

 C   -6.509761333053   -0.714436760186    0.000000000000
 C   -5.527651333053   -1.853776760186    0.000000000000
 O   -6.199561333053   -3.013316760186    0.000000000000
 C   -5.416691333053   -4.226456760186    0.000000000000
 O   -4.294131333053   -1.759156760186    0.000000000000
 H   -5.992771333053    0.250993239814    0.000000000000
 H   -7.159681333053   -0.793626760186    0.883210000000
 H   -7.159681333053   -0.793626760186   -0.883210000000
 H   -6.140901333053   -5.044386760186    0.000000000000
 H   -4.784761333053   -4.261016760186    0.895660000000
 H   -4.784761333053   -4.261016760186   -0.895660000000
RB   -1.224771333053   -0.501746760186    2.883810000000
RB   -1.224771333053   -0.501746760186   -2.883810000000
 O    7.103474135719    2.910045644383    0.000000000000
 C    8.336999838752    3.004673665913    0.000000000000
 O    9.008913769848    4.164213959175    0.000000000000
 C    8.226037065640    5.377346838175    0.000000000000
 H    8.950245484360    6.195278905742    0.000000000000
 H    7.594104993162    5.411909232885   -0.895654092128
 H    7.594104993162    5.411909232885    0.895654092128
 C    9.319111225151    1.865329578815    0.000000000000
 H    8.802118953721    0.899901895930    0.000000000000
 H    9.969027944986    1.944523940744   -0.883210533632
 H    9.969027944986    1.944523940744    0.883210533632
