24

 C   -6.552863777800   -0.732094332139    0.000000000000
 C   -5.570753777800   -1.871434332139    0.000000000000
 O   -6.242663777800   -3.030974332139    0.000000000000
 C   -5.459793777800   -4.244114332139    0.000000000000
 O   -4.337233777800   -1.776814332139    0.000000000000
 H   -6.035873777800    0.233335667861    0.000000000000
 H   -7.202783777800   -0.811284332139    0.883210000000
 H   -7.202783777800   -0.811284332139   -0.883210000000
 H   -6.184003777800   -5.062044332139    0.000000000000
 H   -4.827863777800   -4.278674332139    0.895660000000
 H   -4.827863777800   -4.278674332139   -0.895660000000
RB   -1.267873777800   -0.519404332139    2.883810000000
RB   -1.267873777800   -0.519404332139   -2.883810000000
 O    7.245443812500    2.968205681421    0.000000000000
 C    8.478969515532    3.062833702950    0.000000000000
 O    9.150883446629    4.222373996213    0.000000000000
 C    8.368006742421    5.435506875212    0.000000000000
 H    9.092215161141    6.253438942779    0.000000000000
 H    7.736074669943    5.470069269923   -0.895654092128
 H    7.736074669943    5.470069269923    0.895654092128
 C    9.461080901932    1.923489615853    0.000000000000
 H    8.944088630502    0.958061932967    0.000000000000
 H   10.110997621767    2.002683977781   -0.883210533632
 H   10.110997621767    2.002683977781    0.883210533632
