24

 C   -6.595966222548   -0.749751904092    0.000000000000
 C   -5.613856222548   -1.889091904092    0.000000000000
 O   -6.285766222548   -3.048631904092    0.000000000000
 C   -5.502896222548   -4.261771904092    0.000000000000
 O   -4.380336222548   -1.794471904092    0.000000000000
 H   -6.078976222548    0.215678095908    0.000000000000
 H   -7.245886222548   -0.828941904092    0.883210000000
 H   -7.245886222548   -0.828941904092   -0.883210000000
 H   -6.227106222548   -5.079701904092    0.000000000000
 H   -4.870966222548   -4.296331904092    0.895660000000
 H   -4.870966222548   -4.296331904092   -0.895660000000
RB   -1.310976222548   -0.537061904092    2.883810000000
RB   -1.310976222548   -0.537061904092   -2.883810000000
 O    7.387413489281    3.026365718458    0.000000000000
 C    8.620939192313    3.120993739988    0.000000000000
 O    9.292853123409    4.280534033250    0.000000000000
 C    8.509976419201    5.493666912249    0.000000000000
 H    9.234184837922    6.311598979816    0.000000000000
 H    7.878044346724    5.528229306960   -0.895654092128
 H    7.878044346724    5.528229306960    0.895654092128
 C    9.603050578713    1.981649652890    0.000000000000
 H    9.086058307283    1.016221970005    0.000000000000
 H   10.252967298548    2.060844014819   -0.883210533632
 H   10.252967298548    2.060844014819    0.883210533632
