24

 C   -6.617517444921   -0.758580690069    0.000000000000
 C   -5.635407444921   -1.897920690069    0.000000000000
 O   -6.307317444921   -3.057460690069    0.000000000000
 C   -5.524447444921   -4.270600690069    0.000000000000
 O   -4.401887444921   -1.803300690069    0.000000000000
 H   -6.100527444921    0.206849309931    0.000000000000
 H   -7.267437444921   -0.837770690069    0.883210000000
 H   -7.267437444921   -0.837770690069   -0.883210000000
 H   -6.248657444921   -5.088530690069    0.000000000000
 H   -4.892517444921   -4.305160690069    0.895660000000
 H   -4.892517444921   -4.305160690069   -0.895660000000
RB   -1.332527444921   -0.545890690069    2.883810000000
RB   -1.332527444921   -0.545890690069   -2.883810000000
 O    7.458398327671    3.055445736977    0.000000000000
 C    8.691924030704    3.150073758506    0.000000000000
 O    9.363837961800    4.309614051769    0.000000000000
 C    8.580961257592    5.522746930768    0.000000000000
 H    9.305169676312    6.340678998335    0.000000000000
 H    7.949029185114    5.557309325479   -0.895654092128
 H    7.949029185114    5.557309325479    0.895654092128
 C    9.674035417103    2.010729671409    0.000000000000
 H    9.157043145673    1.045301988523    0.000000000000
 H   10.323952136938    2.089924033337   -0.883210533632
 H   10.323952136938    2.089924033337    0.883210533632
