24

 C   -6.660619889669   -0.776238262022    0.000000000000
 C   -5.678509889669   -1.915578262022    0.000000000000
 O   -6.350419889669   -3.075118262022    0.000000000000
 C   -5.567549889669   -4.288258262022    0.000000000000
 O   -4.444989889669   -1.820958262022    0.000000000000
 H   -6.143629889669    0.189191737978    0.000000000000
 H   -7.310539889669   -0.855428262022    0.883210000000
 H   -7.310539889669   -0.855428262022   -0.883210000000
 H   -6.291759889669   -5.106188262022    0.000000000000
 H   -4.935619889669   -4.322818262022    0.895660000000
 H   -4.935619889669   -4.322818262022   -0.895660000000
RB   -1.375629889669   -0.563548262022    2.883810000000
RB   -1.375629889669   -0.563548262022   -2.883810000000
 O    7.600368004452    3.113605774014    0.000000000000
 C    8.833893707485    3.208233795544    0.000000000000
 O    9.505807638581    4.367774088806    0.000000000000
 C    8.722930934373    5.580906967805    0.000000000000
 H    9.447139353093    6.398839035372    0.000000000000
 H    8.090998861895    5.615469362516   -0.895654092128
 H    8.090998861895    5.615469362516    0.895654092128
 C    9.816005093884    2.068889708446    0.000000000000
 H    9.299012822454    1.103462025561    0.000000000000
 H   10.465921813719    2.148084070375   -0.883210533632
 H   10.465921813719    2.148084070375    0.883210533632
