26

 C   -0.191353711223    3.940805995588    0.000000000000
 H   -0.623303711223    4.952535995588    0.000000000000
 H    0.439026288777    3.828425995588    0.893290000000
 H    0.439026288777    3.828425995588   -0.893290000000
 C   -1.296783711223    2.899895995588    0.000000000000
 H   -1.941433711223    3.009455995588   -0.893920000000
 H   -1.941433711223    3.009455995588    0.893920000000
 O   -0.694693711223    1.606475995588    0.000000000000
 C   -1.684263711223    0.577235995588    0.000000000000
 H   -2.323943711223    0.650645995588   -0.898170000000
 H   -2.323943711223    0.650645995588    0.898170000000
 H   -1.154743711223   -0.382754004412    0.000000000000
CS    0.032936288777   -0.076164004412   39.995070000000
CS    0.032936288777   -0.076164004412  -39.995070000000
 O    0.548921914915   -1.269377662404    0.000000000000
 C    1.538495503899   -0.240140859678    0.000000000000
 H    2.178175555665   -0.313556168917    0.898170272355
 H    2.178175555665   -0.313556168917   -0.898170272355
 H    1.008972618895    0.719853326115    0.000000000000
 C    1.151003491909   -2.562800304368    0.000000000000
 H    1.795656907549   -2.672367036620    0.893927434687
 H    1.795656907549   -2.672367036620   -0.893927434687
 C    0.045578051076   -3.603704743623    0.000000000000
 H    0.477518713170   -4.615437549669    0.000000000000
 H   -0.584804604943   -3.491325342736   -0.893289104180
 H   -0.584804604943   -3.491325342736    0.893289104180
