26

 C   -0.197530427393    3.955089614594    0.000000000000
 H   -0.629480427393    4.966819614594    0.000000000000
 H    0.432849572607    3.842709614594    0.893290000000
 H    0.432849572607    3.842709614594   -0.893290000000
 C   -1.302960427393    2.914179614594    0.000000000000
 H   -1.947610427393    3.023739614594   -0.893920000000
 H   -1.947610427393    3.023739614594    0.893920000000
 O   -0.700870427393    1.620759614594    0.000000000000
 C   -1.690440427393    0.591519614594    0.000000000000
 H   -2.330120427393    0.664929614594   -0.898170000000
 H   -2.330120427393    0.664929614594    0.898170000000
 H   -1.160920427393   -0.368470385406    0.000000000000
CS    0.026759572607   -0.061880385406   39.995070000000
CS    0.026759572607   -0.061880385406  -39.995070000000
 O    0.582436400755   -1.346879709397    0.000000000000
 C    1.572009989739   -0.317642906671    0.000000000000
 H    2.211690041505   -0.391058215910    0.898170272355
 H    2.211690041505   -0.391058215910   -0.898170272355
 H    1.042487104735    0.642351279122    0.000000000000
 C    1.184517977749   -2.640302351361    0.000000000000
 H    1.829171393389   -2.749869083613    0.893927434687
 H    1.829171393389   -2.749869083613   -0.893927434687
 C    0.079092536916   -3.681206790616    0.000000000000
 H    0.511033199010   -4.692939596662    0.000000000000
 H   -0.551290119103   -3.568827389730   -0.893289104180
 H   -0.551290119103   -3.568827389730    0.893289104180
