26

 C   -0.203707143564    3.969373233601    0.000000000000
 H   -0.635657143564    4.981103233601    0.000000000000
 H    0.426672856436    3.856993233601    0.893290000000
 H    0.426672856436    3.856993233601   -0.893290000000
 C   -1.309137143564    2.928463233601    0.000000000000
 H   -1.953787143564    3.038023233601   -0.893920000000
 H   -1.953787143564    3.038023233601    0.893920000000
 O   -0.707047143564    1.635043233601    0.000000000000
 C   -1.696617143564    0.605803233601    0.000000000000
 H   -2.336297143564    0.679213233601   -0.898170000000
 H   -2.336297143564    0.679213233601    0.898170000000
 H   -1.167097143564   -0.354186766399    0.000000000000
CS    0.020582856436   -0.047596766399   39.995070000000
CS    0.020582856436   -0.047596766399  -39.995070000000
 O    0.615950886595   -1.424381756390    0.000000000000
 C    1.605524475579   -0.395144953664    0.000000000000
 H    2.245204527345   -0.468560262903    0.898170272355
 H    2.245204527345   -0.468560262903   -0.898170272355
 H    1.076001590574    0.564849232129    0.000000000000
 C    1.218032463588   -2.717804398354    0.000000000000
 H    1.862685879229   -2.827371130606    0.893927434687
 H    1.862685879229   -2.827371130606   -0.893927434687
 C    0.112607022756   -3.758708837609    0.000000000000
 H    0.544547684850   -4.770441643655    0.000000000000
 H   -0.517775633263   -3.646329436723   -0.893289104180
 H   -0.517775633263   -3.646329436723    0.893289104180
