26

 C   -0.216060575906    3.997940471613    0.000000000000
 H   -0.648010575906    5.009670471613    0.000000000000
 H    0.414319424094    3.885560471613    0.893290000000
 H    0.414319424094    3.885560471613   -0.893290000000
 C   -1.321490575906    2.957030471613    0.000000000000
 H   -1.966140575906    3.066590471613   -0.893920000000
 H   -1.966140575906    3.066590471613    0.893920000000
 O   -0.719400575906    1.663610471613    0.000000000000
 C   -1.708970575906    0.634370471613    0.000000000000
 H   -2.348650575906    0.707780471613   -0.898170000000
 H   -2.348650575906    0.707780471613    0.898170000000
 H   -1.179450575906   -0.325619528387    0.000000000000
CS    0.008229424094   -0.019029528387   39.995070000000
CS    0.008229424094   -0.019029528387  -39.995070000000
 O    0.682979858275   -1.579385850377    0.000000000000
 C    1.672553447258   -0.550149047650    0.000000000000
 H    2.312233499025   -0.623564356889    0.898170272355
 H    2.312233499025   -0.623564356889   -0.898170272355
 H    1.143030562254    0.409845138143    0.000000000000
 C    1.285061435268   -2.872808492340    0.000000000000
 H    1.929714850909   -2.982375224592    0.893927434687
 H    1.929714850909   -2.982375224592   -0.893927434687
 C    0.179635994436   -3.913712931595    0.000000000000
 H    0.611576656530   -4.925445737641    0.000000000000
 H   -0.450746661583   -3.801333530709   -0.893289104180
 H   -0.450746661583   -3.801333530709    0.893289104180
