26

 C   -0.234590724418    4.040791328632    0.000000000000
 H   -0.666540724418    5.052521328632    0.000000000000
 H    0.395789275582    3.928411328632    0.893290000000
 H    0.395789275582    3.928411328632   -0.893290000000
 C   -1.340020724418    2.999881328632    0.000000000000
 H   -1.984670724418    3.109441328632   -0.893920000000
 H   -1.984670724418    3.109441328632    0.893920000000
 O   -0.737930724418    1.706461328632    0.000000000000
 C   -1.727500724418    0.677221328632    0.000000000000
 H   -2.367180724418    0.750631328632   -0.898170000000
 H   -2.367180724418    0.750631328632    0.898170000000
 H   -1.197980724418   -0.282768671368    0.000000000000
CS   -0.010300724418    0.023821328632   39.995070000000
CS   -0.010300724418    0.023821328632  -39.995070000000
 O    0.783523315794   -1.811891991356    0.000000000000
 C    1.773096904778   -0.782655188630    0.000000000000
 H    2.412776956544   -0.856070497868    0.898170272355
 H    2.412776956544   -0.856070497868   -0.898170272355
 H    1.243574019774    0.177338997163    0.000000000000
 C    1.385604892788   -3.105314633320    0.000000000000
 H    2.030258308429   -3.214881365572    0.893927434687
 H    2.030258308429   -3.214881365572   -0.893927434687
 C    0.280179451955   -4.146219072574    0.000000000000
 H    0.712120114049   -5.157951878621    0.000000000000
 H   -0.350203204064   -4.033839671688   -0.893289104180
 H   -0.350203204064   -4.033839671688    0.893289104180
