26

 C   -0.246944156760    4.069358566645    0.000000000000
 H   -0.678894156760    5.081088566645    0.000000000000
 H    0.383435843240    3.956978566645    0.893290000000
 H    0.383435843240    3.956978566645   -0.893290000000
 C   -1.352374156760    3.028448566645    0.000000000000
 H   -1.997024156760    3.138008566645   -0.893920000000
 H   -1.997024156760    3.138008566645    0.893920000000
 O   -0.750284156760    1.735028566645    0.000000000000
 C   -1.739854156760    0.705788566645    0.000000000000
 H   -2.379534156760    0.779198566645   -0.898170000000
 H   -2.379534156760    0.779198566645    0.898170000000
 H   -1.210334156760   -0.254201433355    0.000000000000
CS   -0.022654156760    0.052388566645   39.995070000000
CS   -0.022654156760    0.052388566645  -39.995070000000
 O    0.850552287474   -1.966896085342    0.000000000000
 C    1.840125876458   -0.937659282616    0.000000000000
 H    2.479805928224   -1.011074591855    0.898170272355
 H    2.479805928224   -1.011074591855   -0.898170272355
 H    1.310602991454    0.022334903177    0.000000000000
 C    1.452633864467   -3.260318727306    0.000000000000
 H    2.097287280108   -3.369885459558    0.893927434687
 H    2.097287280108   -3.369885459558   -0.893927434687
 C    0.347208423635   -4.301223166561    0.000000000000
 H    0.779149085729   -5.312955972607    0.000000000000
 H   -0.283174232384   -4.188843765674   -0.893289104180
 H   -0.283174232384   -4.188843765674    0.893289104180
