26

 C   -0.253120872930    4.083642185651    0.000000000000
 H   -0.685070872930    5.095372185651    0.000000000000
 H    0.377259127070    3.971262185651    0.893290000000
 H    0.377259127070    3.971262185651   -0.893290000000
 C   -1.358550872930    3.042732185651    0.000000000000
 H   -2.003200872930    3.152292185651   -0.893920000000
 H   -2.003200872930    3.152292185651    0.893920000000
 O   -0.756460872930    1.749312185651    0.000000000000
 C   -1.746030872930    0.720072185651    0.000000000000
 H   -2.385710872930    0.793482185651   -0.898170000000
 H   -2.385710872930    0.793482185651    0.898170000000
 H   -1.216510872930   -0.239917814349    0.000000000000
CS   -0.028830872930    0.066672185651   39.995070000000
CS   -0.028830872930    0.066672185651  -39.995070000000
 O    0.884066773314   -2.044398132335    0.000000000000
 C    1.873640362298   -1.015161329609    0.000000000000
 H    2.513320414064   -1.088576638848    0.898170272355
 H    2.513320414064   -1.088576638848   -0.898170272355
 H    1.344117477293   -0.055167143816    0.000000000000
 C    1.486148350307   -3.337820774299    0.000000000000
 H    2.130801765948   -3.447387506551    0.893927434687
 H    2.130801765948   -3.447387506551   -0.893927434687
 C    0.380722909475   -4.378725213554    0.000000000000
 H    0.812663571569   -5.390458019600    0.000000000000
 H   -0.249659746544   -4.266345812667   -0.893289104180
 H   -0.249659746544   -4.266345812667    0.893289104180
