26

 C   -0.271651021443    4.126493042670    0.000000000000
 H   -0.703601021443    5.138223042670    0.000000000000
 H    0.358728978557    4.014113042670    0.893290000000
 H    0.358728978557    4.014113042670   -0.893290000000
 C   -1.377081021443    3.085583042670    0.000000000000
 H   -2.021731021443    3.195143042670   -0.893920000000
 H   -2.021731021443    3.195143042670    0.893920000000
 O   -0.774991021443    1.792163042670    0.000000000000
 C   -1.764561021443    0.762923042670    0.000000000000
 H   -2.404241021443    0.836333042670   -0.898170000000
 H   -2.404241021443    0.836333042670    0.898170000000
 H   -1.235041021443   -0.197066957330    0.000000000000
CS   -0.047361021443    0.109523042670   39.995070000000
CS   -0.047361021443    0.109523042670  -39.995070000000
 O    0.984610230833   -2.276904273314    0.000000000000
 C    1.974183819817   -1.247667470588    0.000000000000
 H    2.613863871583   -1.321082779827    0.898170272355
 H    2.613863871583   -1.321082779827   -0.898170272355
 H    1.444660934813   -0.287673284795    0.000000000000
 C    1.586691807827   -3.570326915278    0.000000000000
 H    2.231345223468   -3.679893647530    0.893927434687
 H    2.231345223468   -3.679893647530   -0.893927434687
 C    0.481266366994   -4.611231354533    0.000000000000
 H    0.913207029088   -5.622964160579    0.000000000000
 H   -0.149116289024   -4.498851953647   -0.893289104180
 H   -0.149116289024   -4.498851953647    0.893289104180
