26

 C   -0.308711318467    4.212194756708    0.000000000000
 H   -0.740661318467    5.223924756708    0.000000000000
 H    0.321668681533    4.099814756708    0.893290000000
 H    0.321668681533    4.099814756708   -0.893290000000
 C   -1.414141318467    3.171284756708    0.000000000000
 H   -2.058791318467    3.280844756708   -0.893920000000
 H   -2.058791318467    3.280844756708    0.893920000000
 O   -0.812051318467    1.877864756708    0.000000000000
 C   -1.801621318467    0.848624756708    0.000000000000
 H   -2.441301318467    0.922034756708   -0.898170000000
 H   -2.441301318467    0.922034756708    0.898170000000
 H   -1.272101318467   -0.111365243292    0.000000000000
CS   -0.084421318467    0.195224756708   39.995070000000
CS   -0.084421318467    0.195224756708  -39.995070000000
 O    1.185697145873   -2.741916555273    0.000000000000
 C    2.175270734856   -1.712679752547    0.000000000000
 H    2.814950786622   -1.786095061785    0.898170272355
 H    2.814950786622   -1.786095061785   -0.898170272355
 H    1.645747849852   -0.752685566754    0.000000000000
 C    1.787778722866   -4.035339197237    0.000000000000
 H    2.432432138507   -4.144905929489    0.893927434687
 H    2.432432138507   -4.144905929489   -0.893927434687
 C    0.682353282033   -5.076243636492    0.000000000000
 H    1.114293944127   -6.087976442538    0.000000000000
 H    0.051970626015   -4.963864235605   -0.893289104180
 H    0.051970626015   -4.963864235605    0.893289104180
