26

 C   -0.327241466979    4.255045613727    0.000000000000
 H   -0.759191466979    5.266775613727    0.000000000000
 H    0.303138533021    4.142665613727    0.893290000000
 H    0.303138533021    4.142665613727   -0.893290000000
 C   -1.432671466979    3.214135613727    0.000000000000
 H   -2.077321466979    3.323695613727   -0.893920000000
 H   -2.077321466979    3.323695613727    0.893920000000
 O   -0.830581466979    1.920715613727    0.000000000000
 C   -1.820151466979    0.891475613727    0.000000000000
 H   -2.459831466979    0.964885613727   -0.898170000000
 H   -2.459831466979    0.964885613727    0.898170000000
 H   -1.290631466979   -0.068514386273    0.000000000000
CS   -0.102951466979    0.238075613727   39.995070000000
CS   -0.102951466979    0.238075613727  -39.995070000000
 O    1.286240603392   -2.974422696252    0.000000000000
 C    2.275814192376   -1.945185893526    0.000000000000
 H    2.915494244142   -2.018601202765    0.898170272355
 H    2.915494244142   -2.018601202765   -0.898170272355
 H    1.746291307372   -0.985191707733    0.000000000000
 C    1.888322180386   -4.267845338216    0.000000000000
 H    2.532975596026   -4.377412070468    0.893927434687
 H    2.532975596026   -4.377412070468   -0.893927434687
 C    0.782896739553   -5.308749777471    0.000000000000
 H    1.214837401647   -6.320482583517    0.000000000000
 H    0.152514083534   -5.196370376585   -0.893289104180
 H    0.152514083534   -5.196370376585    0.893289104180
