26

 C   -0.339594899321    4.283612851739    0.000000000000
 H   -0.771544899321    5.295342851739    0.000000000000
 H    0.290785100679    4.171232851739    0.893290000000
 H    0.290785100679    4.171232851739   -0.893290000000
 C   -1.445024899321    3.242702851739    0.000000000000
 H   -2.089674899321    3.352262851739   -0.893920000000
 H   -2.089674899321    3.352262851739    0.893920000000
 O   -0.842934899321    1.949282851739    0.000000000000
 C   -1.832504899321    0.920042851739    0.000000000000
 H   -2.472184899321    0.993452851739   -0.898170000000
 H   -2.472184899321    0.993452851739    0.898170000000
 H   -1.302984899321   -0.039947148261    0.000000000000
CS   -0.115304899321    0.266642851739   39.995070000000
CS   -0.115304899321    0.266642851739  -39.995070000000
 O    1.353269575072   -3.129426790238    0.000000000000
 C    2.342843164056   -2.100189987512    0.000000000000
 H    2.982523215822   -2.173605296751    0.898170272355
 H    2.982523215822   -2.173605296751   -0.898170272355
 H    1.813320279051   -1.140195801719    0.000000000000
 C    1.955351152065   -4.422849432202    0.000000000000
 H    2.600004567706   -4.532416164454    0.893927434687
 H    2.600004567706   -4.532416164454   -0.893927434687
 C    0.849925711233   -5.463753871457    0.000000000000
 H    1.281866373327   -6.475486677503    0.000000000000
 H    0.219543055214   -5.351374470571   -0.893289104180
 H    0.219543055214   -5.351374470571    0.893289104180
