26

 C   -0.351948331662    4.312180089752    0.000000000000
 H   -0.783898331662    5.323910089752    0.000000000000
 H    0.278431668338    4.199800089752    0.893290000000
 H    0.278431668338    4.199800089752   -0.893290000000
 C   -1.457378331662    3.271270089752    0.000000000000
 H   -2.102028331662    3.380830089752   -0.893920000000
 H   -2.102028331662    3.380830089752    0.893920000000
 O   -0.855288331662    1.977850089752    0.000000000000
 C   -1.844858331662    0.948610089752    0.000000000000
 H   -2.484538331662    1.022020089752   -0.898170000000
 H   -2.484538331662    1.022020089752    0.898170000000
 H   -1.315338331662   -0.011379910248    0.000000000000
CS   -0.127658331662    0.295210089752   39.995070000000
CS   -0.127658331662    0.295210089752  -39.995070000000
 O    1.420298546752   -3.284430884225    0.000000000000
 C    2.409872135735   -2.255194081499    0.000000000000
 H    3.049552187501   -2.328609390737    0.898170272355
 H    3.049552187501   -2.328609390737   -0.898170272355
 H    1.880349250731   -1.295199895705    0.000000000000
 C    2.022380123745   -4.577853526189    0.000000000000
 H    2.667033539386   -4.687420258441    0.893927434687
 H    2.667033539386   -4.687420258441   -0.893927434687
 C    0.916954682913   -5.618757965443    0.000000000000
 H    1.348895345006   -6.630490771489    0.000000000000
 H    0.286572026894   -5.506378564557   -0.893289104180
 H    0.286572026894   -5.506378564557    0.893289104180
