26

 C   -0.364301764004    4.340747327764    0.000000000000
 H   -0.796251764004    5.352477327764    0.000000000000
 H    0.266078235996    4.228367327764    0.893290000000
 H    0.266078235996    4.228367327764   -0.893290000000
 C   -1.469731764004    3.299837327764    0.000000000000
 H   -2.114381764004    3.409397327764   -0.893920000000
 H   -2.114381764004    3.409397327764    0.893920000000
 O   -0.867641764004    2.006417327764    0.000000000000
 C   -1.857211764004    0.977177327764    0.000000000000
 H   -2.496891764004    1.050587327764   -0.898170000000
 H   -2.496891764004    1.050587327764    0.898170000000
 H   -1.327691764004    0.017187327764    0.000000000000
CS   -0.140011764004    0.323777327764   39.995070000000
CS   -0.140011764004    0.323777327764  -39.995070000000
 O    1.487327518431   -3.439434978211    0.000000000000
 C    2.476901107415   -2.410198175485    0.000000000000
 H    3.116581159181   -2.483613484723    0.898170272355
 H    3.116581159181   -2.483613484723   -0.898170272355
 H    1.947378222411   -1.450203989692    0.000000000000
 C    2.089409095425   -4.732857620175    0.000000000000
 H    2.734062511066   -4.842424352427    0.893927434687
 H    2.734062511066   -4.842424352427   -0.893927434687
 C    0.983983654592   -5.773762059429    0.000000000000
 H    1.415924316686   -6.785494865475    0.000000000000
 H    0.353600998573   -5.661382658543   -0.893289104180
 H    0.353600998573   -5.661382658543    0.893289104180
