26

 C   -0.370478480175    4.355030946771    0.000000000000
 H   -0.802428480175    5.366760946771    0.000000000000
 H    0.259901519825    4.242650946771    0.893290000000
 H    0.259901519825    4.242650946771   -0.893290000000
 C   -1.475908480175    3.314120946771    0.000000000000
 H   -2.120558480175    3.423680946771   -0.893920000000
 H   -2.120558480175    3.423680946771    0.893920000000
 O   -0.873818480175    2.020700946771    0.000000000000
 C   -1.863388480175    0.991460946771    0.000000000000
 H   -2.503068480175    1.064870946771   -0.898170000000
 H   -2.503068480175    1.064870946771    0.898170000000
 H   -1.333868480175    0.031470946771    0.000000000000
CS   -0.146188480175    0.338060946771   39.995070000000
CS   -0.146188480175    0.338060946771  -39.995070000000
 O    1.520842004271   -3.516937025204    0.000000000000
 C    2.510415593255   -2.487700222478    0.000000000000
 H    3.150095645021   -2.561115531716    0.898170272355
 H    3.150095645021   -2.561115531716   -0.898170272355
 H    1.980892708251   -1.527706036685    0.000000000000
 C    2.122923581265   -4.810359667168    0.000000000000
 H    2.767576996905   -4.919926399420    0.893927434687
 H    2.767576996905   -4.919926399420   -0.893927434687
 C    1.017498140432   -5.851264106422    0.000000000000
 H    1.449438802526   -6.862996912469    0.000000000000
 H    0.387115484413   -5.738884705536   -0.893289104180
 H    0.387115484413   -5.738884705536    0.893289104180
