26

 C   -0.376655196345    4.369314565777    0.000000000000
 H   -0.808605196345    5.381044565777    0.000000000000
 H    0.253724803655    4.256934565777    0.893290000000
 H    0.253724803655    4.256934565777   -0.893290000000
 C   -1.482085196345    3.328404565777    0.000000000000
 H   -2.126735196345    3.437964565777   -0.893920000000
 H   -2.126735196345    3.437964565777    0.893920000000
 O   -0.879995196345    2.034984565777    0.000000000000
 C   -1.869565196345    1.005744565777    0.000000000000
 H   -2.509245196345    1.079154565777   -0.898170000000
 H   -2.509245196345    1.079154565777    0.898170000000
 H   -1.340045196345    0.045754565777    0.000000000000
CS   -0.152365196345    0.352344565777   39.995070000000
CS   -0.152365196345    0.352344565777  -39.995070000000
 O    1.554356490111   -3.594439072197    0.000000000000
 C    2.543930079095   -2.565202269471    0.000000000000
 H    3.183610130861   -2.638617578709    0.898170272355
 H    3.183610130861   -2.638617578709   -0.898170272355
 H    2.014407194091   -1.605208083678    0.000000000000
 C    2.156438067105   -4.887861714161    0.000000000000
 H    2.801091482745   -4.997428446413    0.893927434687
 H    2.801091482745   -4.997428446413   -0.893927434687
 C    1.051012626272   -5.928766153416    0.000000000000
 H    1.482953288366   -6.940498959462    0.000000000000
 H    0.420629970253   -5.816386752529   -0.893289104180
 H    0.420629970253   -5.816386752529    0.893289104180
