26

 C   -0.395185344858    4.412165422796    0.000000000000
 H   -0.827135344858    5.423895422796    0.000000000000
 H    0.235194655142    4.299785422796    0.893290000000
 H    0.235194655142    4.299785422796   -0.893290000000
 C   -1.500615344858    3.371255422796    0.000000000000
 H   -2.145265344858    3.480815422796   -0.893920000000
 H   -2.145265344858    3.480815422796    0.893920000000
 O   -0.898525344858    2.077835422796    0.000000000000
 C   -1.888095344858    1.048595422796    0.000000000000
 H   -2.527775344858    1.122005422796   -0.898170000000
 H   -2.527775344858    1.122005422796    0.898170000000
 H   -1.358575344858    0.088605422796    0.000000000000
CS   -0.170895344858    0.395195422796   39.995070000000
CS   -0.170895344858    0.395195422796  -39.995070000000
 O    1.654899947631   -3.826945213176    0.000000000000
 C    2.644473536614   -2.797708410450    0.000000000000
 H    3.284153588380   -2.871123719689    0.898170272355
 H    3.284153588380   -2.871123719689   -0.898170272355
 H    2.114950651610   -1.837714224657    0.000000000000
 C    2.256981524624   -5.120367855140    0.000000000000
 H    2.901634940265   -5.229934587392    0.893927434687
 H    2.901634940265   -5.229934587392   -0.893927434687
 C    1.151556083792   -6.161272294395    0.000000000000
 H    1.583496745885   -7.173005100441    0.000000000000
 H    0.521173427773   -6.048892893509   -0.893289104180
 H    0.521173427773   -6.048892893509    0.893289104180
