26

 C   -0.413715493370    4.455016279815    0.000000000000
 H   -0.845665493370    5.466746279815    0.000000000000
 H    0.216664506630    4.342636279815    0.893290000000
 H    0.216664506630    4.342636279815   -0.893290000000
 C   -1.519145493370    3.414106279815    0.000000000000
 H   -2.163795493370    3.523666279815   -0.893920000000
 H   -2.163795493370    3.523666279815    0.893920000000
 O   -0.917055493370    2.120686279815    0.000000000000
 C   -1.906625493370    1.091446279815    0.000000000000
 H   -2.546305493370    1.164856279815   -0.898170000000
 H   -2.546305493370    1.164856279815    0.898170000000
 H   -1.377105493370    0.131456279815    0.000000000000
CS   -0.189425493370    0.438046279815   39.995070000000
CS   -0.189425493370    0.438046279815  -39.995070000000
 O    1.755443405150   -4.059451354155    0.000000000000
 C    2.745016994134   -3.030214551429    0.000000000000
 H    3.384697045900   -3.103629860668    0.898170272355
 H    3.384697045900   -3.103629860668   -0.898170272355
 H    2.215494109130   -2.070220365636    0.000000000000
 C    2.357524982144   -5.352873996119    0.000000000000
 H    3.002178397784   -5.462440728371    0.893927434687
 H    3.002178397784   -5.462440728371   -0.893927434687
 C    1.252099541311   -6.393778435374    0.000000000000
 H    1.684040203405   -7.405511241420    0.000000000000
 H    0.621716885292   -6.281399034488   -0.893289104180
 H    0.621716885292   -6.281399034488    0.893289104180
