26

 C   -0.419892209541    4.469299898821    0.000000000000
 H   -0.851842209541    5.481029898821    0.000000000000
 H    0.210487790459    4.356919898821    0.893290000000
 H    0.210487790459    4.356919898821   -0.893290000000
 C   -1.525322209541    3.428389898821    0.000000000000
 H   -2.169972209541    3.537949898821   -0.893920000000
 H   -2.169972209541    3.537949898821    0.893920000000
 O   -0.923232209541    2.134969898821    0.000000000000
 C   -1.912802209541    1.105729898821    0.000000000000
 H   -2.552482209541    1.179139898821   -0.898170000000
 H   -2.552482209541    1.179139898821    0.898170000000
 H   -1.383282209541    0.145739898821    0.000000000000
CS   -0.195602209541    0.452329898821   39.995070000000
CS   -0.195602209541    0.452329898821  -39.995070000000
 O    1.788957890990   -4.136953401149    0.000000000000
 C    2.778531479974   -3.107716598423    0.000000000000
 H    3.418211531740   -3.181131907661    0.898170272355
 H    3.418211531740   -3.181131907661   -0.898170272355
 H    2.249008594970   -2.147722412629    0.000000000000
 C    2.391039467984   -5.430376043113    0.000000000000
 H    3.035692883624   -5.539942775365    0.893927434687
 H    3.035692883624   -5.539942775365   -0.893927434687
 C    1.285614027151   -6.471280482367    0.000000000000
 H    1.717554689245   -7.483013288413    0.000000000000
 H    0.655231371132   -6.358901081481   -0.893289104180
 H    0.655231371132   -6.358901081481    0.893289104180
