26

 C   -0.432245641882    4.497867136834    0.000000000000
 H   -0.864195641882    5.509597136834    0.000000000000
 H    0.198134358118    4.385487136834    0.893290000000
 H    0.198134358118    4.385487136834   -0.893290000000
 C   -1.537675641882    3.456957136834    0.000000000000
 H   -2.182325641882    3.566517136834   -0.893920000000
 H   -2.182325641882    3.566517136834    0.893920000000
 O   -0.935585641882    2.163537136834    0.000000000000
 C   -1.925155641882    1.134297136834    0.000000000000
 H   -2.564835641882    1.207707136834   -0.898170000000
 H   -2.564835641882    1.207707136834    0.898170000000
 H   -1.395635641882    0.174307136834    0.000000000000
CS   -0.207955641882    0.480897136834   39.995070000000
CS   -0.207955641882    0.480897136834  -39.995070000000
 O    1.855986862670   -4.291957495135    0.000000000000
 C    2.845560451654   -3.262720692409    0.000000000000
 H    3.485240503420   -3.336136001647    0.898170272355
 H    3.485240503420   -3.336136001647   -0.898170272355
 H    2.316037566649   -2.302726506616    0.000000000000
 C    2.458068439663   -5.585380137099    0.000000000000
 H    3.102721855304   -5.694946869351    0.893927434687
 H    3.102721855304   -5.694946869351   -0.893927434687
 C    1.352642998831   -6.626284576353    0.000000000000
 H    1.784583660925   -7.638017382399    0.000000000000
 H    0.722260342812   -6.513905175467   -0.893289104180
 H    0.722260342812   -6.513905175467    0.893289104180
