26

 C   -0.456952506565    4.555001612859    0.000000000000
 H   -0.888902506565    5.566731612859    0.000000000000
 H    0.173427493435    4.442621612859    0.893290000000
 H    0.173427493435    4.442621612859   -0.893290000000
 C   -1.562382506565    3.514091612859    0.000000000000
 H   -2.207032506565    3.623651612859   -0.893920000000
 H   -2.207032506565    3.623651612859    0.893920000000
 O   -0.960292506565    2.220671612859    0.000000000000
 C   -1.949862506565    1.191431612859    0.000000000000
 H   -2.589542506565    1.264841612859   -0.898170000000
 H   -2.589542506565    1.264841612859    0.898170000000
 H   -1.420342506565    0.231441612859    0.000000000000
CS   -0.232662506565    0.538031612859   39.995070000000
CS   -0.232662506565    0.538031612859  -39.995070000000
 O    1.990044806029   -4.601965683107    0.000000000000
 C    2.979618395013   -3.572728880381    0.000000000000
 H    3.619298446779   -3.646144189620    0.898170272355
 H    3.619298446779   -3.646144189620   -0.898170272355
 H    2.450095510009   -2.612734694588    0.000000000000
 C    2.592126383023   -5.895388325071    0.000000000000
 H    3.236779798663   -6.004955057323    0.893927434687
 H    3.236779798663   -6.004955057323   -0.893927434687
 C    1.486700942190   -6.936292764326    0.000000000000
 H    1.918641604284   -7.948025570372    0.000000000000
 H    0.856318286171   -6.823913363439   -0.893289104180
 H    0.856318286171   -6.823913363439    0.893289104180
