26

 C   -0.469305938907    4.583568850872    0.000000000000
 H   -0.901255938907    5.595298850872    0.000000000000
 H    0.161074061093    4.471188850872    0.893290000000
 H    0.161074061093    4.471188850872   -0.893290000000
 C   -1.574735938907    3.542658850872    0.000000000000
 H   -2.219385938907    3.652218850872   -0.893920000000
 H   -2.219385938907    3.652218850872    0.893920000000
 O   -0.972645938907    2.249238850872    0.000000000000
 C   -1.962215938907    1.219998850872    0.000000000000
 H   -2.601895938907    1.293408850872   -0.898170000000
 H   -2.601895938907    1.293408850872    0.898170000000
 H   -1.432695938907    0.260008850872    0.000000000000
CS   -0.245015938907    0.566598850872   39.995070000000
CS   -0.245015938907    0.566598850872  -39.995070000000
 O    2.057073777709   -4.756969777093    0.000000000000
 C    3.046647366693   -3.727732974367    0.000000000000
 H    3.686327418459   -3.801148283606    0.898170272355
 H    3.686327418459   -3.801148283606   -0.898170272355
 H    2.517124481688   -2.767738788574    0.000000000000
 C    2.659155354702   -6.050392419057    0.000000000000
 H    3.303808770343   -6.159959151309    0.893927434687
 H    3.303808770343   -6.159959151309   -0.893927434687
 C    1.553729913870   -7.091296858312    0.000000000000
 H    1.985670575964   -8.103029664358    0.000000000000
 H    0.923347257851   -6.978917457426   -0.893289104180
 H    0.923347257851   -6.978917457426    0.893289104180
