26

 C   -0.481659371248    4.612136088884    0.000000000000
 H   -0.913609371248    5.623866088884    0.000000000000
 H    0.148720628752    4.499756088884    0.893290000000
 H    0.148720628752    4.499756088884   -0.893290000000
 C   -1.587089371248    3.571226088884    0.000000000000
 H   -2.231739371248    3.680786088884   -0.893920000000
 H   -2.231739371248    3.680786088884    0.893920000000
 O   -0.984999371248    2.277806088884    0.000000000000
 C   -1.974569371248    1.248566088884    0.000000000000
 H   -2.614249371248    1.321976088884   -0.898170000000
 H   -2.614249371248    1.321976088884    0.898170000000
 H   -1.445049371248    0.288576088884    0.000000000000
CS   -0.257369371248    0.595166088884   39.995070000000
CS   -0.257369371248    0.595166088884  -39.995070000000
 O    2.124102749389   -4.911973871079    0.000000000000
 C    3.113676338373   -3.882737068353    0.000000000000
 H    3.753356390139   -3.956152377592    0.898170272355
 H    3.753356390139   -3.956152377592   -0.898170272355
 H    2.584153453368   -2.922742882560    0.000000000000
 C    2.726184326382   -6.205396513043    0.000000000000
 H    3.370837742023   -6.314963245295    0.893927434687
 H    3.370837742023   -6.314963245295   -0.893927434687
 C    1.620758885550   -7.246300952298    0.000000000000
 H    2.052699547644   -8.258033758344    0.000000000000
 H    0.990376229531   -7.133921551412   -0.893289104180
 H    0.990376229531   -7.133921551412    0.893289104180
