26

 C   -0.487836087419    4.626419707891    0.000000000000
 H   -0.919786087419    5.638149707891    0.000000000000
 H    0.142543912581    4.514039707891    0.893290000000
 H    0.142543912581    4.514039707891   -0.893290000000
 C   -1.593266087419    3.585509707891    0.000000000000
 H   -2.237916087419    3.695069707891   -0.893920000000
 H   -2.237916087419    3.695069707891    0.893920000000
 O   -0.991176087419    2.292089707891    0.000000000000
 C   -1.980746087419    1.262849707891    0.000000000000
 H   -2.620426087419    1.336259707891   -0.898170000000
 H   -2.620426087419    1.336259707891    0.898170000000
 H   -1.451226087419    0.302859707891    0.000000000000
CS   -0.263546087419    0.609449707891   39.995070000000
CS   -0.263546087419    0.609449707891  -39.995070000000
 O    2.157617235229   -4.989475918073    0.000000000000
 C    3.147190824212   -3.960239115347    0.000000000000
 H    3.786870875978   -4.033654424585    0.898170272355
 H    3.786870875978   -4.033654424585   -0.898170272355
 H    2.617667939208   -3.000244929553    0.000000000000
 C    2.759698812222   -6.282898560037    0.000000000000
 H    3.404352227863   -6.392465292289    0.893927434687
 H    3.404352227863   -6.392465292289   -0.893927434687
 C    1.654273371389   -7.323802999291    0.000000000000
 H    2.086214033483   -8.335535805337    0.000000000000
 H    1.023890715371   -7.211423598405   -0.893289104180
 H    1.023890715371   -7.211423598405    0.893289104180
