26

 C   -0.494012803590    4.640703326897    0.000000000000
 H   -0.925962803590    5.652433326897    0.000000000000
 H    0.136367196410    4.528323326897    0.893290000000
 H    0.136367196410    4.528323326897   -0.893290000000
 C   -1.599442803590    3.599793326897    0.000000000000
 H   -2.244092803590    3.709353326897   -0.893920000000
 H   -2.244092803590    3.709353326897    0.893920000000
 O   -0.997352803590    2.306373326897    0.000000000000
 C   -1.986922803590    1.277133326897    0.000000000000
 H   -2.626602803590    1.350543326897   -0.898170000000
 H   -2.626602803590    1.350543326897    0.898170000000
 H   -1.457402803590    0.317143326897    0.000000000000
CS   -0.269722803590    0.623733326897   39.995070000000
CS   -0.269722803590    0.623733326897  -39.995070000000
 O    2.191131721068   -5.066977965066    0.000000000000
 C    3.180705310052   -4.037741162340    0.000000000000
 H    3.820385361818   -4.111156471578    0.898170272355
 H    3.820385361818   -4.111156471578   -0.898170272355
 H    2.651182425048   -3.077746976546    0.000000000000
 C    2.793213298062   -6.360400607030    0.000000000000
 H    3.437866713703   -6.469967339282    0.893927434687
 H    3.437866713703   -6.469967339282   -0.893927434687
 C    1.687787857229   -7.401305046284    0.000000000000
 H    2.119728519323   -8.413037852330    0.000000000000
 H    1.057405201211   -7.288925645398   -0.893289104180
 H    1.057405201211   -7.288925645398    0.893289104180
