26

 C   -0.531073100614    4.726405040935    0.000000000000
 H   -0.963023100614    5.738135040935    0.000000000000
 H    0.099306899386    4.614025040935    0.893290000000
 H    0.099306899386    4.614025040935   -0.893290000000
 C   -1.636503100614    3.685495040935    0.000000000000
 H   -2.281153100614    3.795055040935   -0.893920000000
 H   -2.281153100614    3.795055040935    0.893920000000
 O   -1.034413100614    2.392075040935    0.000000000000
 C   -2.023983100614    1.362835040935    0.000000000000
 H   -2.663663100614    1.436245040935   -0.898170000000
 H   -2.663663100614    1.436245040935    0.898170000000
 H   -1.494463100614    0.402845040935    0.000000000000
CS   -0.306783100614    0.709435040935   39.995070000000
CS   -0.306783100614    0.709435040935  -39.995070000000
 O    2.392218636108   -5.531990247024    0.000000000000
 C    3.381792225091   -4.502753444298    0.000000000000
 H    4.021472276857   -4.576168753537    0.898170272355
 H    4.021472276857   -4.576168753537   -0.898170272355
 H    2.852269340087   -3.542759258505    0.000000000000
 C    2.994300213101   -6.825412888988    0.000000000000
 H    3.638953628742   -6.934979621240    0.893927434687
 H    3.638953628742   -6.934979621240   -0.893927434687
 C    1.888874772268   -7.866317328243    0.000000000000
 H    2.320815434362   -8.878050134289    0.000000000000
 H    1.258492116250   -7.753937927357   -0.893289104180
 H    1.258492116250   -7.753937927357    0.893289104180
