26

 C   -0.555779965297    4.783539516960    0.000000000000
 H   -0.987729965297    5.795269516960    0.000000000000
 H    0.074600034703    4.671159516960    0.893290000000
 H    0.074600034703    4.671159516960   -0.893290000000
 C   -1.661209965297    3.742629516960    0.000000000000
 H   -2.305859965297    3.852189516960   -0.893920000000
 H   -2.305859965297    3.852189516960    0.893920000000
 O   -1.059119965297    2.449209516960    0.000000000000
 C   -2.048689965297    1.419969516960    0.000000000000
 H   -2.688369965297    1.493379516960   -0.898170000000
 H   -2.688369965297    1.493379516960    0.898170000000
 H   -1.519169965297    0.459979516960    0.000000000000
CS   -0.331489965297    0.766569516960   39.995070000000
CS   -0.331489965297    0.766569516960  -39.995070000000
 O    2.526276579467   -5.841998434997    0.000000000000
 C    3.515850168451   -4.812761632271    0.000000000000
 H    4.155530220217   -4.886176941509    0.898170272355
 H    4.155530220217   -4.886176941509   -0.898170272355
 H    2.986327283447   -3.852767446477    0.000000000000
 C    3.128358156461   -7.135421076961    0.000000000000
 H    3.773011572101   -7.244987809213    0.893927434687
 H    3.773011572101   -7.244987809213   -0.893927434687
 C    2.022932715628   -8.176325516215    0.000000000000
 H    2.454873377722   -9.188058322261    0.000000000000
 H    1.392550059609   -8.063946115329   -0.893289104180
 H    1.392550059609   -8.063946115329    0.893289104180
