26

 C   -0.561956681468    4.797823135966    0.000000000000
 H   -0.993906681468    5.809553135966    0.000000000000
 H    0.068423318532    4.685443135966    0.893290000000
 H    0.068423318532    4.685443135966   -0.893290000000
 C   -1.667386681468    3.756913135966    0.000000000000
 H   -2.312036681468    3.866473135966   -0.893920000000
 H   -2.312036681468    3.866473135966    0.893920000000
 O   -1.065296681468    2.463493135966    0.000000000000
 C   -2.054866681468    1.434253135966    0.000000000000
 H   -2.694546681468    1.507663135966   -0.898170000000
 H   -2.694546681468    1.507663135966    0.898170000000
 H   -1.525346681468    0.474263135966    0.000000000000
CS   -0.337666681468    0.780853135966   39.995070000000
CS   -0.337666681468    0.780853135966  -39.995070000000
 O    2.559791065307   -5.919500481990    0.000000000000
 C    3.549364654291   -4.890263679264    0.000000000000
 H    4.189044706057   -4.963678988502    0.898170272355
 H    4.189044706057   -4.963678988502   -0.898170272355
 H    3.019841769286   -3.930269493470    0.000000000000
 C    3.161872642300   -7.212923123954    0.000000000000
 H    3.806526057941   -7.322489856206    0.893927434687
 H    3.806526057941   -7.322489856206   -0.893927434687
 C    2.056447201468   -8.253827563208    0.000000000000
 H    2.488387863562   -9.265560369254    0.000000000000
 H    1.426064545449   -8.141448162322   -0.893289104180
 H    1.426064545449   -8.141448162322    0.893289104180
