26

 C   -0.568133397639    4.812106754973    0.000000000000
 H   -1.000083397639    5.823836754973    0.000000000000
 H    0.062246602361    4.699726754973    0.893290000000
 H    0.062246602361    4.699726754973   -0.893290000000
 C   -1.673563397639    3.771196754973    0.000000000000
 H   -2.318213397639    3.880756754973   -0.893920000000
 H   -2.318213397639    3.880756754973    0.893920000000
 O   -1.071473397639    2.477776754973    0.000000000000
 C   -2.061043397639    1.448536754973    0.000000000000
 H   -2.700723397639    1.521946754973   -0.898170000000
 H   -2.700723397639    1.521946754973    0.898170000000
 H   -1.531523397639    0.488546754973    0.000000000000
CS   -0.343843397639    0.795136754973   39.995070000000
CS   -0.343843397639    0.795136754973  -39.995070000000
 O    2.593305551147   -5.997002528983    0.000000000000
 C    3.582879140131   -4.967765726257    0.000000000000
 H    4.222559191897   -5.041181035495    0.898170272355
 H    4.222559191897   -5.041181035495   -0.898170272355
 H    3.053356255126   -4.007771540464    0.000000000000
 C    3.195387128140   -7.290425170947    0.000000000000
 H    3.840040543781   -7.399991903199    0.893927434687
 H    3.840040543781   -7.399991903199   -0.893927434687
 C    2.089961687308   -8.331329610201    0.000000000000
 H    2.521902349402   -9.343062416247    0.000000000000
 H    1.459579031289   -8.218950209315   -0.893289104180
 H    1.459579031289   -8.218950209315    0.893289104180
