26

 C   -0.580486829980    4.840673992985    0.000000000000
 H   -1.012436829980    5.852403992985    0.000000000000
 H    0.049893170020    4.728293992985    0.893290000000
 H    0.049893170020    4.728293992985   -0.893290000000
 C   -1.685916829980    3.799763992985    0.000000000000
 H   -2.330566829980    3.909323992985   -0.893920000000
 H   -2.330566829980    3.909323992985    0.893920000000
 O   -1.083826829980    2.506343992985    0.000000000000
 C   -2.073396829980    1.477103992985    0.000000000000
 H   -2.713076829980    1.550513992985   -0.898170000000
 H   -2.713076829980    1.550513992985    0.898170000000
 H   -1.543876829980    0.517113992985    0.000000000000
CS   -0.356196829980    0.823703992985   39.995070000000
CS   -0.356196829980    0.823703992985  -39.995070000000
 O    2.660334522826   -6.152006622969    0.000000000000
 C    3.649908111810   -5.122769820243    0.000000000000
 H    4.289588163576   -5.196185129481    0.898170272355
 H    4.289588163576   -5.196185129481   -0.898170272355
 H    3.120385226806   -4.162775634450    0.000000000000
 C    3.262416099820   -7.445429264933    0.000000000000
 H    3.907069515461   -7.554995997185    0.893927434687
 H    3.907069515461   -7.554995997185   -0.893927434687
 C    2.156990658987   -8.486333704188    0.000000000000
 H    2.588931321081   -9.498066510234    0.000000000000
 H    1.526608002969   -8.373954303301   -0.893289104180
 H    1.526608002969   -8.373954303301    0.893289104180
