26

 C   -0.605193694663    4.897808469010    0.000000000000
 H   -1.037143694663    5.909538469010    0.000000000000
 H    0.025186305337    4.785428469010    0.893290000000
 H    0.025186305337    4.785428469010   -0.893290000000
 C   -1.710623694663    3.856898469010    0.000000000000
 H   -2.355273694663    3.966458469010   -0.893920000000
 H   -2.355273694663    3.966458469010    0.893920000000
 O   -1.108533694663    2.563478469010    0.000000000000
 C   -2.098103694663    1.534238469010    0.000000000000
 H   -2.737783694663    1.607648469010   -0.898170000000
 H   -2.737783694663    1.607648469010    0.898170000000
 H   -1.568583694663    0.574248469010    0.000000000000
CS   -0.380903694663    0.880838469010   39.995070000000
CS   -0.380903694663    0.880838469010  -39.995070000000
 O    2.794392466186   -6.462014810941    0.000000000000
 C    3.783966055170   -5.432778008215    0.000000000000
 H    4.423646106936   -5.506193317454    0.898170272355
 H    4.423646106936   -5.506193317454   -0.898170272355
 H    3.254443170165   -4.472783822422    0.000000000000
 C    3.396474043179   -7.755437452905    0.000000000000
 H    4.041127458820   -7.865004185157    0.893927434687
 H    4.041127458820   -7.865004185157   -0.893927434687
 C    2.291048602347   -8.796341892160    0.000000000000
 H    2.722989264441   -9.808074698206    0.000000000000
 H    1.660665946328   -8.683962491274   -0.893289104180
 H    1.660665946328   -8.683962491274    0.893289104180
