26

 C   -0.629900559346    4.954942945036    0.000000000000
 H   -1.061850559346    5.966672945036    0.000000000000
 H    0.000479440654    4.842562945036    0.893290000000
 H    0.000479440654    4.842562945036   -0.893290000000
 C   -1.735330559346    3.914032945036    0.000000000000
 H   -2.379980559346    4.023592945036   -0.893920000000
 H   -2.379980559346    4.023592945036    0.893920000000
 O   -1.133240559346    2.620612945036    0.000000000000
 C   -2.122810559346    1.591372945036    0.000000000000
 H   -2.762490559346    1.664782945036   -0.898170000000
 H   -2.762490559346    1.664782945036    0.898170000000
 H   -1.593290559346    0.631382945036    0.000000000000
CS   -0.405610559346    0.937972945036   39.995070000000
CS   -0.405610559346    0.937972945036  -39.995070000000
 O    2.928450409545   -6.772022998914    0.000000000000
 C    3.918023998529   -5.742786196188    0.000000000000
 H    4.557704050295   -5.816201505426    0.898170272355
 H    4.557704050295   -5.816201505426   -0.898170272355
 H    3.388501113525   -4.782792010394    0.000000000000
 C    3.530531986539   -8.065445640878    0.000000000000
 H    4.175185402180   -8.175012373130    0.893927434687
 H    4.175185402180   -8.175012373130   -0.893927434687
 C    2.425106545706   -9.106350080132    0.000000000000
 H    2.857047207800  -10.118082886178    0.000000000000
 H    1.794723889688   -8.993970679246   -0.893289104180
 H    1.794723889688   -8.993970679246    0.893289104180
