26

 C   -0.636077275517    4.969226564042    0.000000000000
 H   -1.068027275517    5.980956564042    0.000000000000
 H   -0.005697275517    4.856846564042    0.893290000000
 H   -0.005697275517    4.856846564042   -0.893290000000
 C   -1.741507275517    3.928316564042    0.000000000000
 H   -2.386157275517    4.037876564042   -0.893920000000
 H   -2.386157275517    4.037876564042    0.893920000000
 O   -1.139417275517    2.634896564042    0.000000000000
 C   -2.128987275517    1.605656564042    0.000000000000
 H   -2.768667275517    1.679066564042   -0.898170000000
 H   -2.768667275517    1.679066564042    0.898170000000
 H   -1.599467275517    0.645666564042    0.000000000000
CS   -0.411787275517    0.952256564042   39.995070000000
CS   -0.411787275517    0.952256564042  -39.995070000000
 O    2.961964895385   -6.849525045907    0.000000000000
 C    3.951538484369   -5.820288243181    0.000000000000
 H    4.591218536135   -5.893703552419    0.898170272355
 H    4.591218536135   -5.893703552419   -0.898170272355
 H    3.422015599365   -4.860294057388    0.000000000000
 C    3.564046472379   -8.142947687871    0.000000000000
 H    4.208699888019   -8.252514420123    0.893927434687
 H    4.208699888019   -8.252514420123   -0.893927434687
 C    2.458621031546   -9.183852127125    0.000000000000
 H    2.890561693640  -10.195584933172    0.000000000000
 H    1.828238375527   -9.071472726239   -0.893289104180
 H    1.828238375527   -9.071472726239    0.893289104180
