26

 C   -0.642253991688    4.983510183048    0.000000000000
 H   -1.074203991688    5.995240183048    0.000000000000
 H   -0.011873991688    4.871130183048    0.893290000000
 H   -0.011873991688    4.871130183048   -0.893290000000
 C   -1.747683991688    3.942600183048    0.000000000000
 H   -2.392333991688    4.052160183048   -0.893920000000
 H   -2.392333991688    4.052160183048    0.893920000000
 O   -1.145593991688    2.649180183048    0.000000000000
 C   -2.135163991688    1.619940183048    0.000000000000
 H   -2.774843991688    1.693350183048   -0.898170000000
 H   -2.774843991688    1.693350183048    0.898170000000
 H   -1.605643991688    0.659950183048    0.000000000000
CS   -0.417963991688    0.966540183048   39.995070000000
CS   -0.417963991688    0.966540183048  -39.995070000000
 O    2.995479381225   -6.927027092900    0.000000000000
 C    3.985052970209   -5.897790290174    0.000000000000
 H    4.624733021975   -5.971205599412    0.898170272355
 H    4.624733021975   -5.971205599412   -0.898170272355
 H    3.455530085205   -4.937796104381    0.000000000000
 C    3.597560958219   -8.220449734864    0.000000000000
 H    4.242214373859   -8.330016467116    0.893927434687
 H    4.242214373859   -8.330016467116   -0.893927434687
 C    2.492135517386   -9.261354174119    0.000000000000
 H    2.924076179480  -10.273086980165    0.000000000000
 H    1.861752861367   -9.148974773232   -0.893289104180
 H    1.861752861367   -9.148974773232    0.893289104180
