26

 C   -0.654607424029    5.012077421061    0.000000000000
 H   -1.086557424029    6.023807421061    0.000000000000
 H   -0.024227424029    4.899697421061    0.893290000000
 H   -0.024227424029    4.899697421061   -0.893290000000
 C   -1.760037424029    3.971167421061    0.000000000000
 H   -2.404687424029    4.080727421061   -0.893920000000
 H   -2.404687424029    4.080727421061    0.893920000000
 O   -1.157947424029    2.677747421061    0.000000000000
 C   -2.147517424029    1.648507421061    0.000000000000
 H   -2.787197424029    1.721917421061   -0.898170000000
 H   -2.787197424029    1.721917421061    0.898170000000
 H   -1.617997424029    0.688517421061    0.000000000000
CS   -0.430317424029    0.995107421061   39.995070000000
CS   -0.430317424029    0.995107421061  -39.995070000000
 O    3.062508352905   -7.082031186886    0.000000000000
 C    4.052081941889   -6.052794384160    0.000000000000
 H    4.691761993655   -6.126209693399    0.898170272355
 H    4.691761993655   -6.126209693399   -0.898170272355
 H    3.522559056884   -5.092800198367    0.000000000000
 C    3.664589929898   -8.375453828850    0.000000000000
 H    4.309243345539   -8.485020561102    0.893927434687
 H    4.309243345539   -8.485020561102   -0.893927434687
 C    2.559164489066   -9.416358268105    0.000000000000
 H    2.991105151160  -10.428091074151    0.000000000000
 H    1.928781833047   -9.303978867218   -0.893289104180
 H    1.928781833047   -9.303978867218    0.893289104180
