26

 C   -0.660784140200    5.026361040067    0.000000000000
 H   -1.092734140200    6.038091040067    0.000000000000
 H   -0.030404140200    4.913981040067    0.893290000000
 H   -0.030404140200    4.913981040067   -0.893290000000
 C   -1.766214140200    3.985451040067    0.000000000000
 H   -2.410864140200    4.095011040067   -0.893920000000
 H   -2.410864140200    4.095011040067    0.893920000000
 O   -1.164124140200    2.692031040067    0.000000000000
 C   -2.153694140200    1.662791040067    0.000000000000
 H   -2.793374140200    1.736201040067   -0.898170000000
 H   -2.793374140200    1.736201040067    0.898170000000
 H   -1.624174140200    0.702801040067    0.000000000000
CS   -0.436494140200    1.009391040067   39.995070000000
CS   -0.436494140200    1.009391040067  -39.995070000000
 O    3.096022838745   -7.159533233879    0.000000000000
 C    4.085596427728   -6.130296431153    0.000000000000
 H    4.725276479495   -6.203711740392    0.898170272355
 H    4.725276479495   -6.203711740392   -0.898170272355
 H    3.556073542724   -5.170302245360    0.000000000000
 C    3.698104415738   -8.452955875843    0.000000000000
 H    4.342757831379   -8.562522608095    0.893927434687
 H    4.342757831379   -8.562522608095   -0.893927434687
 C    2.592678974906   -9.493860315098    0.000000000000
 H    3.024619637000  -10.505593121144    0.000000000000
 H    1.962296318887   -9.381480914211   -0.893289104180
 H    1.962296318887   -9.381480914211    0.893289104180
