26

 C   -0.722551301908    5.169197230130    0.000000000000
 H   -1.154501301908    6.180927230130    0.000000000000
 H   -0.092171301908    5.056817230130    0.893290000000
 H   -0.092171301908    5.056817230130   -0.893290000000
 C   -1.827981301908    4.128287230130    0.000000000000
 H   -2.472631301908    4.237847230130   -0.893920000000
 H   -2.472631301908    4.237847230130    0.893920000000
 O   -1.225891301908    2.834867230130    0.000000000000
 C   -2.215461301908    1.805627230130    0.000000000000
 H   -2.855141301908    1.879037230130   -0.898170000000
 H   -2.855141301908    1.879037230130    0.898170000000
 H   -1.685941301908    0.845637230130    0.000000000000
CS   -0.498261301908    1.152227230130   39.995070000000
CS   -0.498261301908    1.152227230130  -39.995070000000
 O    3.431167697143   -7.934553703810    0.000000000000
 C    4.420741286127   -6.905316901084    0.000000000000
 H    5.060421337893   -6.978732210323    0.898170272355
 H    5.060421337893   -6.978732210323   -0.898170272355
 H    3.891218401123   -5.945322715291    0.000000000000
 C    4.033249274137   -9.227976345774    0.000000000000
 H    4.677902689778   -9.337543078026    0.893927434687
 H    4.677902689778   -9.337543078026   -0.893927434687
 C    2.927823833304  -10.268880785029    0.000000000000
 H    3.359764495398  -11.280613591075    0.000000000000
 H    2.297441177285  -10.156501384142   -0.893289104180
 H    2.297441177285  -10.156501384142    0.893289104180
