27

 P    1.579471462995   -1.714651548910    0.814538723735
 O    0.917731462995   -0.698221548910    1.763248723735
 O    1.208051462995   -1.588231548910   -0.674331276265
 O    3.230211462995   -1.746741548910    1.021788723735
 O    1.363541462995   -3.272381548910    1.358578723735
 C    3.833871462995   -0.504081548910    0.633218723735
 H    3.446901462995    0.323338451090    1.250298723735
 H    3.638931462995   -0.295811548910   -0.431501276265
 H    4.914201462995   -0.610531548910    0.795858723735
 C   -0.022078537005   -3.645811548910    1.348808723735
 H   -0.429158537005   -3.594221548910    0.325908723735
 H   -0.604138537005   -2.987291548910    2.013568723735
 H   -0.075778537005   -4.679361548910    1.714368723735
 K   -0.375198537005    0.407308451090   -0.193491276265
 P   -1.462522216375    1.587690487279   -0.754227814155
 O   -3.113253637043    1.619779872967   -0.961476573248
 O   -1.246590417582    3.145422966319   -1.298260852592
 O   -0.800776606410    0.571265035357   -1.702936661630
 O   -1.091100267373    1.461264928321    0.734643706106
 C   -3.716912974165    0.377117599623   -0.572909981772
 H   -3.329943231965   -0.450297972819   -1.189992929764
 H   -3.521984171304    0.168848829457    0.491808776440
 H   -4.797244850670    0.483563772212   -0.735555705198
 C    0.139029299297    3.518847481714   -1.288491533408
 H    0.546102308028    3.467255550434   -0.265582731124
 H    0.721091749111    2.860329816578   -1.953243870840
 H    0.192725313066    4.552402894604   -1.654042704505
