27

 P    1.607139402157   -1.744687442531    0.828807174528
 O    0.945399402157   -0.728257442531    1.777517174528
 O    1.235719402157   -1.618267442531   -0.660062825472
 O    3.257879402157   -1.776777442531    1.036057174528
 O    1.391209402157   -3.302417442531    1.372847174528
 C    3.861539402157   -0.534117442531    0.647487174528
 H    3.474569402157    0.293302557469    1.264567174528
 H    3.666599402157   -0.325847442531   -0.417232825472
 H    4.941869402157   -0.640567442531    0.810127174528
 C    0.005589402157   -3.675847442531    1.363077174528
 H   -0.401490597843   -3.624257442531    0.340177174528
 H   -0.576470597843   -3.017327442531    2.027837174528
 H   -0.048110597843   -4.709397442531    1.728637174528
 K   -0.347530597843    0.377272557469   -0.179222825472
 P   -1.498814493647    1.627088831081   -0.772943865590
 O   -3.149545914315    1.659178216769   -0.980192624683
 O   -1.282882694854    3.184821310122   -1.316976904027
 O   -0.837068883682    0.610663379159   -1.721652713065
 O   -1.127392544645    1.500663272123    0.715927654671
 C   -3.753205251437    0.416515943425   -0.591626033207
 H   -3.366235509237   -0.410899629017   -1.208708981199
 H   -3.558276448576    0.208247173259    0.473092725005
 H   -4.833537127942    0.522962116014   -0.754271756633
 C    0.102737022025    3.558245825516   -1.307207584843
 H    0.509810030756    3.506653894236   -0.284298782559
 H    0.684799471839    2.899728160381   -1.971959922275
 H    0.156433035795    4.591801238406   -1.672758755940
