27

 P    3.875910413409   -4.207630719419    1.998820139618
 O    3.214170413409   -3.191200719419    2.947530139618
 O    3.504490413409   -4.081210719419    0.509950139618
 O    5.526650413409   -4.239720719419    2.206070139618
 O    3.659980413409   -5.765360719419    2.542860139618
 C    6.130310413409   -2.997060719419    1.817500139618
 H    5.743340413409   -2.169640719419    2.434580139618
 H    5.935370413409   -2.788790719419    0.752780139618
 H    7.210640413409   -3.103510719419    1.980140139618
 C    2.274360413409   -6.138790719419    2.533090139618
 H    1.867280413409   -6.087200719419    1.510190139618
 H    1.692300413409   -5.480270719419    3.197850139618
 H    2.220660413409   -7.172340719419    2.898650139618
 K    1.921240413409   -2.085670719419    0.990790139618
 P   -4.474781229946    4.857753022867   -2.307660083259
 O   -6.125512650614    4.889842408555   -2.514908842353
 O   -4.258849431154    6.415485501907   -2.851693121697
 O   -3.813035619982    3.841327570945   -3.256368930735
 O   -4.103359280945    4.731327463909   -0.818788562999
 C   -6.729171987736    3.647180135211   -2.126342250876
 H   -6.342202245536    2.819764562769   -2.743425198868
 H   -6.534243184875    3.438911365045   -1.061623492664
 H   -7.809503864241    3.753626307800   -2.288987974303
 C   -2.873229714274    6.788910017302   -2.841923802512
 H   -2.466156705544    6.737318086022   -1.819015000228
 H   -2.291167264460    6.130392352166   -3.506676139944
 H   -2.819533700505    7.822465430192   -3.207474973609
