27

 P    1.773147037127   -1.924902804254    0.914417879291
 O    1.111407037127   -0.908472804254    1.863127879291
 O    1.401727037127   -1.798482804254   -0.574452120709
 O    3.423887037127   -1.956992804254    1.121667879291
 O    1.557217037127   -3.482632804254    1.458457879291
 C    4.027547037127   -0.714332804254    0.733097879291
 H    3.640577037127    0.113087195746    1.350177879291
 H    3.832607037127   -0.506062804254   -0.331622120709
 H    5.107877037127   -0.820782804254    0.895737879291
 C    0.171597037127   -3.856062804254    1.448687879291
 H   -0.235482962873   -3.804472804254    0.425787879291
 H   -0.410462962873   -3.197542804254    2.113447879291
 H    0.117897037127   -4.889612804254    1.814247879291
 K   -0.181522962873    0.197057195746   -0.093612120709
 P   -1.716568157279    1.863478893894   -0.885240174200
 O   -3.367299577946    1.895568279583   -1.092488933293
 O   -1.500636358486    3.421211372935   -1.429273212637
 O   -1.054822547314    0.847053441973   -1.833949021675
 O   -1.345146208277    1.737053334937    0.603631346061
 C   -3.970958915069    0.652906006239   -0.703922341817
 H   -3.583989172868   -0.174509566204   -1.321005289809
 H   -3.776030112207    0.444637236073    0.360796416395
 H   -5.051290791573    0.759352178828   -0.866568065243
 C   -0.115016641606    3.794635888329   -1.419503893453
 H    0.292056367124    3.743043957050   -0.396595091169
 H    0.467045808208    3.136118223194   -2.084256230885
 H   -0.061320627837    4.828191301220   -1.785055064550
