27

 P    1.828482915450   -1.984974591495    0.942954780879
 O    1.166742915450   -0.968544591495    1.891664780879
 O    1.457062915450   -1.858554591495   -0.545915219121
 O    3.479222915450   -2.017064591495    1.150204780879
 O    1.612552915450   -3.542704591495    1.486994780879
 C    4.082882915450   -0.774404591495    0.761634780879
 H    3.695912915450    0.053015408505    1.378714780879
 H    3.887942915450   -0.566134591495   -0.303085219121
 H    5.163212915450   -0.880854591495    0.924274780879
 C    0.226932915450   -3.916134591495    1.477224780879
 H   -0.180147084550   -3.864544591495    0.454324780879
 H   -0.355127084550   -3.257614591495    2.141984780879
 H    0.173232915450   -4.949684591495    1.842784780879
 K   -0.126187084550    0.136985408505   -0.065075219121
 P   -1.789152711822    1.942275581499   -0.922672277070
 O   -3.439884132490    1.974364967188   -1.129921036163
 O   -1.573220913030    3.500008060540   -1.466705315507
 O   -1.127407101858    0.925850129577   -1.871381124545
 O   -1.417730762821    1.815850022541    0.566199243191
 C   -4.043543469612    0.731702693843   -0.741354444687
 H   -3.656573727412   -0.095712878599   -1.358437392679
 H   -3.848614666751    0.523433923678    0.323364313525
 H   -5.123875346117    0.838148866432   -0.904000168113
 C   -0.187601196150    3.873432575934   -1.456935996323
 H    0.219471812580    3.821840644654   -0.434027194039
 H    0.394461253664    3.214914910799   -2.121688333755
 H   -0.133905182381    4.906987988824   -1.822487167420
