27

 P    1.939154672096   -2.105118165978    1.000028584054
 O    1.277414672096   -1.088688165978    1.948738584054
 O    1.567734672096   -1.978698165978   -0.488841415946
 O    3.589894672096   -2.137208165978    1.207278584054
 O    1.723224672096   -3.662848165978    1.544068584054
 C    4.193554672096   -0.894548165978    0.818708584054
 H    3.806584672096   -0.067128165978    1.435788584054
 H    3.998614672096   -0.686278165978   -0.246011415946
 H    5.273884672096   -1.000998165978    0.981348584054
 C    0.337604672096   -4.036278165978    1.534298584054
 H   -0.069475327904   -3.984688165978    0.511398584054
 H   -0.244455327904   -3.377758165978    2.199058584054
 H    0.283904672096   -5.069828165978    1.899858584054
 K   -0.015515327904    0.016841834022   -0.008001415946
 P   -1.934321820910    2.099868956708   -0.997536482809
 O   -3.585053241578    2.131958342397   -1.204785241903
 O   -1.718390022118    3.657601435749   -1.541569521247
 O   -1.272576210946    1.083443504787   -1.946245330285
 O   -1.562899871909    1.973443397750    0.491335037451
 C   -4.188712578700    0.889296069052   -0.816218650427
 H   -3.801742836500    0.061880496610   -1.433301598418
 H   -3.993783775839    0.681027298887    0.248500107785
 H   -5.269044455205    0.995742241642   -0.978864373853
 C   -0.332770305238    4.031025951143   -1.531800202063
 H    0.074302703492    3.979434019863   -0.508891399779
 H    0.249292144576    3.372508286008   -2.196552539495
 H   -0.279074291469    5.064581364033   -1.897351373160
