27

 P    1.994490550419   -2.165189953219    1.028565485641
 O    1.332750550419   -1.148759953219    1.977275485641
 O    1.623070550419   -2.038769953219   -0.460304514359
 O    3.645230550419   -2.197279953219    1.235815485641
 O    1.778560550419   -3.722919953219    1.572605485641
 C    4.248890550419   -0.954619953219    0.847245485641
 H    3.861920550419   -0.127199953219    1.464325485641
 H    4.053950550419   -0.746349953219   -0.217474514359
 H    5.329220550419   -1.061069953219    1.009885485641
 C    0.392940550419   -4.096349953219    1.562835485641
 H   -0.014139449581   -4.044759953219    0.539935485641
 H   -0.189119449581   -3.437829953219    2.227595485641
 H    0.339240550419   -5.129899953219    1.928395485641
 K    0.039820550419   -0.043229953219    0.020535485641
 P   -2.006906375454    2.178665644313   -1.034968585679
 O   -3.657637796122    2.210755030001   -1.242217344773
 O   -1.790974576661    3.736398123353   -1.579001624117
 O   -1.345160765490    1.162240192391   -1.983677433155
 O   -1.635484426453    2.052240085355    0.453902934581
 C   -4.261297133244    0.968092756657   -0.853650753297
 H   -3.874327391044    0.140677184215   -1.470733701288
 H   -4.066368330383    0.759823986491    0.211068004915
 H   -5.341629009749    1.074538929246   -1.016296476723
 C   -0.405354859782    4.109822638748   -1.569232304933
 H    0.001718148949    4.058230707468   -0.546323502649
 H    0.176707590032    3.451304973612   -2.233984642365
 H   -0.351658846013    5.143378051638   -1.934783476030
