27

 P    2.022158489581   -2.195225846839    1.042833936435
 O    1.360418489581   -1.178795846839    1.991543936435
 O    1.650738489581   -2.068805846839   -0.446036063565
 O    3.672898489581   -2.227315846839    1.250083936435
 O    1.806228489581   -3.752955846839    1.586873936435
 C    4.276558489581   -0.984655846839    0.861513936435
 H    3.889588489581   -0.157235846839    1.478593936435
 H    4.081618489581   -0.776385846839   -0.203206063565
 H    5.356888489581   -1.091105846839    1.024153936435
 C    0.420608489581   -4.126385846839    1.577103936435
 H    0.013528489581   -4.074795846839    0.554203936435
 H   -0.161451510419   -3.467865846839    2.241863936435
 H    0.366908489581   -5.159935846839    1.942663936435
 K    0.067488489581   -0.073265846839    0.034803936435
 P   -2.043198652726    2.218063988115   -1.053684637114
 O   -3.693930073394    2.250153373803   -1.260933396208
 O   -1.827266853933    3.775796467155   -1.597717675552
 O   -1.381453042762    1.201638536193   -2.002393484590
 O   -1.671776703725    2.091638429157    0.435186883146
 C   -4.297589410516    1.007491100459   -0.872366804732
 H   -3.910619668316    0.180075528017   -1.489449752723
 H   -4.102660607655    0.799222330293    0.192351953480
 H   -5.377921287021    1.113937273048   -1.035012528158
 C   -0.441647137054    4.149220982550   -1.587948356368
 H   -0.034574128323    4.097629051270   -0.565039554084
 H    0.140415312760    3.490703317415   -2.252700693800
 H   -0.387951123285    5.182776395440   -1.953499527465
