27

 P    2.105162307066   -2.285333527701    1.085639288816
 O    1.443422307066   -1.268903527701    2.034349288816
 O    1.733742307066   -2.158913527701   -0.403230711184
 O    3.755902307066   -2.317423527701    1.292889288816
 O    1.889232307066   -3.843063527701    1.629679288816
 C    4.359562307066   -1.074763527701    0.904319288816
 H    3.972592307066   -0.247343527701    1.521399288816
 H    4.164622307066   -0.866493527701   -0.160400711184
 H    5.439892307066   -1.181213527701    1.066959288816
 C    0.503612307066   -4.216493527701    1.619909288816
 H    0.096532307066   -4.164903527701    0.597009288816
 H   -0.078447692934   -3.557973527701    2.284669288816
 H    0.449912307066   -5.250043527701    1.985469288816
 K    0.150492307066   -0.163373527701    0.077609288816
 P   -2.152075484542    2.336259019522   -1.109832791419
 O   -3.802806905210    2.368348405210   -1.317081550513
 O   -1.936143685749    3.893991498562   -1.653865829857
 O   -1.490329874577    1.319833567600   -2.058541638895
 O   -1.780653535540    2.209833460564    0.379038728841
 C   -4.406466242332    1.125686131866   -0.928514959037
 H   -4.019496500132    0.298270559424   -1.545597907028
 H   -4.211537439471    0.917417361700    0.136203799175
 H   -5.486798118837    1.232132304455   -1.091160682463
 C   -0.550523968870    4.267416013957   -1.644096510673
 H   -0.143450960139    4.215824082677   -0.621187708389
 H    0.031538480944    3.608898348821   -2.308848848105
 H   -0.496827955100    5.300971426847   -2.009647681770
