27

 P    2.160498185389   -2.345405314942    1.114176190404
 O    1.498758185389   -1.328975314942    2.062886190404
 O    1.789078185389   -2.218985314942   -0.374693809596
 O    3.811238185389   -2.377495314942    1.321426190404
 O    1.944568185389   -3.903135314942    1.658216190404
 C    4.414898185389   -1.134835314942    0.932856190404
 H    4.027928185389   -0.307415314942    1.549936190404
 H    4.219958185389   -0.926565314942   -0.131863809596
 H    5.495228185389   -1.241285314942    1.095496190404
 C    0.558948185389   -4.276565314942    1.648446190404
 H    0.151868185389   -4.224975314942    0.625546190404
 H   -0.023111814611   -3.618045314942    2.313206190404
 H    0.505248185389   -5.310115314942    2.014006190404
 K    0.205828185389   -0.223445314942    0.106146190404
 P   -2.224660039086    2.415055707126   -1.147264894289
 O   -3.875391459754    2.447145092815   -1.354513653383
 O   -2.008728240293    3.972788186167   -1.691297932727
 O   -1.562914429121    1.398630255205   -2.095973741765
 O   -1.853238090084    2.288630148169    0.341606625971
 C   -4.479050796876    1.204482819470   -0.965947061907
 H   -4.092081054676    0.377067247028   -1.583030009898
 H   -4.284121994015    0.996214049305    0.098771696305
 H   -5.559382673380    1.310928992060   -1.128592785333
 C   -0.623108523414    4.346212701561   -1.681528613543
 H   -0.216035514683    4.294620770281   -0.658619811259
 H   -0.041046073600    3.687695036426   -2.346280950975
 H   -0.569412509644    5.379768114451   -2.047079784640
