27

 P    2.215834063712   -2.405477102184    1.142713091991
 O    1.554094063712   -1.389047102184    2.091423091991
 O    1.844414063712   -2.279057102184   -0.346156908009
 O    3.866574063712   -2.437567102184    1.349963091991
 O    1.999904063712   -3.963207102184    1.686753091991
 C    4.470234063712   -1.194907102184    0.961393091991
 H    4.083264063712   -0.367487102184    1.578473091991
 H    4.275294063712   -0.986637102184   -0.103326908009
 H    5.550564063712   -1.301357102184    1.124033091991
 C    0.614284063712   -4.336637102184    1.676983091991
 H    0.207204063712   -4.285047102184    0.654083091991
 H    0.032224063712   -3.678117102184    2.341743091991
 H    0.560584063712   -5.370187102184    2.042543091991
 K    0.261164063712   -0.283517102184    0.134683091991
 P   -2.297244593630    2.493852394731   -1.184696997159
 O   -3.947976014298    2.525941780419   -1.391945756253
 O   -2.081312794837    4.051584873771   -1.728730035597
 O   -1.635498983665    1.477426942809   -2.133405844635
 O   -1.925822644628    2.367426835773    0.304174523101
 C   -4.551635351420    1.283279507075   -1.003379164777
 H   -4.164665609220    0.455863934633   -1.620462112768
 H   -4.356706548559    1.075010736909    0.061339593435
 H   -5.631967227924    1.389725679664   -1.166024888203
 C   -0.695693077958    4.425009389166   -1.718960716413
 H   -0.288620069227    4.373417457886   -0.696051914129
 H   -0.113630628144    3.766491724030   -2.383713053845
 H   -0.641997064188    5.458564802056   -2.084511887510
