27

 P    2.243502002874   -2.435512995804    1.156981542785
 O    1.581762002874   -1.419082995804    2.105691542785
 O    1.872082002874   -2.309092995804   -0.331888457215
 O    3.894242002874   -2.467602995804    1.364231542785
 O    2.027572002874   -3.993242995804    1.701021542785
 C    4.497902002874   -1.224942995804    0.975661542785
 H    4.110932002874   -0.397522995804    1.592741542785
 H    4.302962002874   -1.016672995804   -0.089058457215
 H    5.578232002874   -1.331392995804    1.138301542785
 C    0.641952002874   -4.366672995804    1.691251542785
 H    0.234872002874   -4.315082995804    0.668351542785
 H    0.059892002874   -3.708152995804    2.356011542785
 H    0.588252002874   -5.400222995804    2.056811542785
 K    0.288832002874   -0.313552995804    0.148951542785
 P   -2.333536870902    2.533250738533   -1.203413048594
 O   -3.984268291570    2.565340124222   -1.410661807688
 O   -2.117605072109    4.090983217574   -1.747446087032
 O   -1.671791260937    1.516825286611   -2.152121896070
 O   -1.962114921900    2.406825179575    0.285458471666
 C   -4.587927628692    1.322677850877   -1.022095216212
 H   -4.200957886491    0.495262278435   -1.639178164203
 H   -4.392998825830    1.114409080712    0.042623542000
 H   -5.668259505196    1.429124023466   -1.184740939638
 C   -0.731985355229    4.464407732968   -1.737676767848
 H   -0.324912346499    4.412815801688   -0.714767965564
 H   -0.149922905415    3.805890067833   -2.402429105280
 H   -0.678289341460    5.497963145858   -2.103227938945
