27

 P    2.354173759520   -2.555656570287    1.214055345960
 O    1.692433759520   -1.539226570287    2.162765345960
 O    1.982753759520   -2.429236570287   -0.274814654040
 O    4.004913759520   -2.587746570287    1.421305345960
 O    2.138243759520   -4.113386570287    1.758095345960
 C    4.608573759520   -1.345086570287    1.032735345960
 H    4.221603759520   -0.517666570287    1.649815345960
 H    4.413633759520   -1.136816570287   -0.031984654040
 H    5.688903759520   -1.451536570287    1.195375345960
 C    0.752623759520   -4.486816570287    1.748325345960
 H    0.345543759520   -4.435226570287    0.725425345960
 H    0.170563759520   -3.828296570287    2.413085345960
 H    0.698923759520   -5.520366570287    2.113885345960
 K    0.399503759520   -0.433696570287    0.206025345960
 P   -2.478705979989    2.690844113742   -1.278277254334
 O   -4.129437400657    2.722933499431   -1.485526013428
 O   -2.262774181197    4.248576592783   -1.822310292772
 O   -1.816960370025    1.674418661820   -2.226986101810
 O   -2.107284030988    2.564418554784    0.210594265926
 C   -4.733096737779    1.480271226086   -1.096959421952
 H   -4.346126995579    0.652855653644   -1.714042369943
 H   -4.538167934918    1.272002455921   -0.032240663740
 H   -5.813428614284    1.586717398675   -1.259605145378
 C   -0.877154464317    4.622001108177   -1.812540973587
 H   -0.470081455587    4.570409176897   -0.789632171304
 H   -0.295092014503    3.963483443042   -2.477293311020
 H   -0.823458450548    5.655556521067   -2.178092144685
