27

 P    2.464845516167   -2.675800144769    1.271129149135
 O    1.803105516167   -1.659370144769    2.219839149135
 O    2.093425516167   -2.549380144769   -0.217740850865
 O    4.115585516167   -2.707890144769    1.478379149135
 O    2.248915516167   -4.233530144769    1.815169149135
 C    4.719245516167   -1.465230144769    1.089809149135
 H    4.332275516167   -0.637810144769    1.706889149135
 H    4.524305516167   -1.256960144769    0.025089149135
 H    5.799575516167   -1.571680144769    1.252449149135
 C    0.863295516167   -4.606960144769    1.805399149135
 H    0.456215516167   -4.555370144769    0.782499149135
 H    0.281235516167   -3.948440144769    2.470159149135
 H    0.809595516167   -5.640510144769    2.170959149135
 K    0.510175516167   -0.553840144769    0.263099149135
 P   -2.623875089077    2.848437488951   -1.353141460074
 O   -4.274606509745    2.880526874640   -1.560390219168
 O   -2.407943290284    4.406169967992   -1.897174498512
 O   -1.962129479113    1.832012037030   -2.301850307550
 O   -2.252453140076    2.722011929993    0.135730060186
 C   -4.878265846867    1.637864601295   -1.171823627692
 H   -4.491296104667    0.810449028853   -1.788906575683
 H   -4.683337044006    1.429595831130   -0.107104869480
 H   -5.958597723372    1.744310773885   -1.334469351118
 C   -1.022323573405    4.779594483386   -1.887405179327
 H   -0.615250564674    4.728002552106   -0.864496377044
 H   -0.440261123591    4.121076818251   -2.552157516760
 H   -0.968627559636    5.813149896276   -2.252956350425
