27

 P    2.520181394490   -2.735871932010    1.299666050723
 O    1.858441394490   -1.719441932010    2.248376050723
 O    2.148761394490   -2.609451932010   -0.189203949277
 O    4.170921394490   -2.767961932010    1.506916050723
 O    2.304251394490   -4.293601932010    1.843706050723
 C    4.774581394490   -1.525301932010    1.118346050723
 H    4.387611394490   -0.697881932010    1.735426050723
 H    4.579641394490   -1.317031932010    0.053626050723
 H    5.854911394490   -1.631751932010    1.280986050723
 C    0.918631394490   -4.667031932010    1.833936050723
 H    0.511551394490   -4.615441932010    0.811036050723
 H    0.336571394490   -4.008511932010    2.498696050723
 H    0.864931394490   -5.700581932010    2.199496050723
 K    0.565511394490   -0.613911932010    0.291636050723
 P   -2.696459643621    2.927234176556   -1.390573562944
 O   -4.347191064289    2.959323562244   -1.597822322038
 O   -2.480527844828    4.484966655596   -1.934606601382
 O   -2.034714033657    1.910808724634   -2.339282410420
 O   -2.325037694620    2.800808617598    0.098297957316
 C   -4.950850401411    1.716661288900   -1.209255730562
 H   -4.563880659211    0.889245716458   -1.826338678553
 H   -4.755921598550    1.508392518734   -0.144536972350
 H   -6.031182277916    1.823107461489   -1.371901453988
 C   -1.094908127949    4.858391170991   -1.924837282197
 H   -0.687835119218    4.806799239711   -0.901928479914
 H   -0.512845678135    4.199873505855   -2.589589619630
 H   -1.041212114180    5.891946583881   -2.290388453295
