27

 P    2.658521090298   -2.886051400113    1.371008304692
 O    1.996781090298   -1.869621400113    2.319718304692
 O    2.287101090298   -2.759631400113   -0.117861695308
 O    4.309261090298   -2.918141400113    1.578258304692
 O    2.442591090298   -4.443781400113    1.915048304692
 C    4.912921090298   -1.675481400113    1.189688304692
 H    4.525951090298   -0.848061400113    1.806768304692
 H    4.717981090298   -1.467211400113    0.124968304692
 H    5.993251090298   -1.781931400113    1.352328304692
 C    1.056971090298   -4.817211400113    1.905278304692
 H    0.649891090298   -4.765621400113    0.882378304692
 H    0.474911090298   -4.158691400113    2.570038304692
 H    1.003271090298   -5.850761400113    2.270838304692
 K    0.703851090298   -0.764091400113    0.362978304692
 P   -2.877921029981    3.124225895567   -1.484153820119
 O   -4.528652450649    3.156315281256   -1.691402579213
 O   -2.661989231188    4.681958374608   -2.028186858557
 O   -2.216175420016    2.107800443645   -2.432862667595
 O   -2.506499080979    2.997800336609    0.004717700141
 C   -5.132311787771    1.913653007911   -1.302835987737
 H   -4.745342045571    1.086237435469   -1.919918935728
 H   -4.937382984910    1.705384237746   -0.238117229525
 H   -6.212643664275    2.020099180500   -1.465481711163
 C   -1.276369514309    5.055382890002   -2.018417539372
 H   -0.869296505578    5.003790958722   -0.995508737088
 H   -0.694307064495    4.396865224867   -2.683169876805
 H   -1.222673500539    6.088938302892   -2.383968710470
