27

 P    2.713856968621   -2.946123187354    1.399545206279
 O    2.052116968621   -1.929693187354    2.348255206279
 O    2.342436968621   -2.819703187354   -0.089324793721
 O    4.364596968621   -2.978213187354    1.606795206279
 O    2.497926968621   -4.503853187354    1.943585206279
 C    4.968256968621   -1.735553187354    1.218225206279
 H    4.581286968621   -0.908133187354    1.835305206279
 H    4.773316968621   -1.527283187354    0.153505206279
 H    6.048586968621   -1.842003187354    1.380865206279
 C    1.112306968621   -4.877283187354    1.933815206279
 H    0.705226968621   -4.825693187354    0.910915206279
 H    0.530246968621   -4.218763187354    2.598575206279
 H    1.058606968621   -5.910833187354    2.299375206279
 K    0.759186968621   -0.824163187354    0.391515206279
 P   -2.950505584525    3.203022583171   -1.521585922989
 O   -4.601237005193    3.235111968860   -1.728834682083
 O   -2.734573785732    4.760755062212   -2.065618961427
 O   -2.288759974560    2.186597131250   -2.470294770465
 O   -2.579083635523    3.076597024214   -0.032714402729
 C   -5.204896342315    1.992449695516   -1.340268090607
 H   -4.817926600115    1.165034123074   -1.957351038598
 H   -5.009967539454    1.784180925350   -0.275549332395
 H   -6.285228218819    2.098895868105   -1.502913814033
 C   -1.348954068852    5.134179577606   -2.055849642242
 H   -0.941881060122    5.082587646327   -1.032940839958
 H   -0.766891619039    4.475661912471   -2.720601979675
 H   -1.295258055083    6.167734990497   -2.421400813340
