27

 P    2.769192846944   -3.006194974595    1.428082107867
 O    2.107452846944   -1.989764974595    2.376792107867
 O    2.397772846944   -2.879774974595   -0.060787892133
 O    4.419932846944   -3.038284974595    1.635332107867
 O    2.553262846944   -4.563924974595    1.972122107867
 C    5.023592846944   -1.795624974595    1.246762107867
 H    4.636622846944   -0.968204974595    1.863842107867
 H    4.828652846944   -1.587354974595    0.182042107867
 H    6.103922846944   -1.902074974595    1.409402107867
 C    1.167642846944   -4.937354974595    1.962352107867
 H    0.760562846944   -4.885764974595    0.939452107867
 H    0.585582846944   -4.278834974595    2.627112107867
 H    1.113942846944   -5.970904974595    2.327912107867
 K    0.814522846944   -0.884234974595    0.420052107867
 P   -3.023090139069    3.281819270776   -1.559018025859
 O   -4.673821559736    3.313908656465   -1.766266784953
 O   -2.807158340276    4.839551749817   -2.103051064297
 O   -2.361344529104    2.265393818854   -2.507726873335
 O   -2.651668190067    3.155393711818   -0.070146505599
 C   -5.277480896858    2.071246383120   -1.377700193477
 H   -4.890511154658    1.243830810678   -1.994783141468
 H   -5.082552093997    1.862977612955   -0.312981435265
 H   -6.357812773363    2.177692555709   -1.540345916903
 C   -1.421538623396    5.212976265211   -2.093281745112
 H   -1.014465614666    5.161384333931   -1.070372942828
 H   -0.839476173582    4.554458600076   -2.758034082544
 H   -1.367842609627    6.246531678101   -2.458832916210
