27

 P    2.796860786106   -3.036230868216    1.442350558661
 O    2.135120786106   -2.019800868216    2.391060558661
 O    2.425440786106   -2.909810868216   -0.046519441339
 O    4.447600786106   -3.068320868216    1.649600558661
 O    2.580930786106   -4.593960868216    1.986390558661
 C    5.051260786106   -1.825660868216    1.261030558661
 H    4.664290786106   -0.998240868216    1.878110558661
 H    4.856320786106   -1.617390868216    0.196310558661
 H    6.131590786106   -1.932110868216    1.423670558661
 C    1.195310786106   -4.967390868216    1.976620558661
 H    0.788230786106   -4.915800868216    0.953720558661
 H    0.613250786106   -4.308870868216    2.641380558661
 H    1.141610786106   -6.000940868216    2.342180558661
 K    0.842190786106   -0.914270868216    0.434320558661
 P   -3.059382416341    3.321217614578   -1.577734077294
 O   -4.710113837008    3.353307000267   -1.784982836388
 O   -2.843450617548    4.878950093619   -2.121767115732
 O   -2.397636806376    2.304792162657   -2.526442924770
 O   -2.687960467339    3.194792055621   -0.088862557034
 C   -5.313773174130    2.110644726922   -1.396416244912
 H   -4.926803431930    1.283229154480   -2.013499192903
 H   -5.118844371269    1.902375956757   -0.331697486700
 H   -6.394105050635    2.217090899512   -1.559061968338
 C   -1.457830900668    5.252374609013   -2.111997796547
 H   -1.050757891938    5.200782677734   -1.089088994263
 H   -0.875768450854    4.593856943878   -2.776750133979
 H   -1.404134886899    6.285930021903   -2.477548967645
