27

 P    2.824528725268   -3.066266761837    1.456619009455
 O    2.162788725268   -2.049836761837    2.405329009455
 O    2.453108725268   -2.939846761837   -0.032250990545
 O    4.475268725268   -3.098356761837    1.663869009455
 O    2.608598725268   -4.623996761837    2.000659009455
 C    5.078928725268   -1.855696761837    1.275299009455
 H    4.691958725268   -1.028276761837    1.892379009455
 H    4.883988725268   -1.647426761837    0.210579009455
 H    6.159258725268   -1.962146761837    1.437939009455
 C    1.222978725268   -4.997426761837    1.990889009455
 H    0.815898725268   -4.945836761837    0.967989009455
 H    0.640918725268   -4.338906761837    2.655649009455
 H    1.169278725268   -6.030976761837    2.356449009455
 K    0.869858725268   -0.944306761837    0.448589009455
 P   -3.095674693612    3.360615958381   -1.596450128729
 O   -4.746406114280    3.392705344069   -1.803698887823
 O   -2.879742894820    4.918348437421   -2.140483167167
 O   -2.433929083648    2.344190506459   -2.545158976205
 O   -2.724252744611    3.234190399423   -0.107578608469
 C   -5.350065451402    2.150043070725   -1.415132296347
 H   -4.963095709202    1.322627498283   -2.032215244338
 H   -5.155136648541    1.941774300559   -0.350413538135
 H   -6.430397327907    2.256489243314   -1.577778019773
 C   -1.494123177940    5.291772952815   -2.130713847982
 H   -1.087050169210    5.240181021536   -1.107805045698
 H   -0.912060728126    4.633255287680   -2.795466185414
 H   -1.440427164171    6.325328365706   -2.496265019080
