27

 P    2.879864603591   -3.126338549078    1.485155911042
 O    2.218124603591   -2.109908549078    2.433865911042
 O    2.508444603591   -2.999918549078   -0.003714088958
 O    4.530604603591   -3.158428549078    1.692405911042
 O    2.663934603591   -4.684068549078    2.029195911042
 C    5.134264603591   -1.915768549078    1.303835911042
 H    4.747294603591   -1.088348549078    1.920915911042
 H    4.939324603591   -1.707498549078    0.239115911042
 H    6.214594603591   -2.022218549078    1.466475911042
 C    1.278314603591   -5.057498549078    2.019425911042
 H    0.871234603591   -5.005908549078    0.996525911042
 H    0.696254603591   -4.398978549078    2.684185911042
 H    1.224614603591   -6.091048549078    2.384985911042
 K    0.925194603591   -1.004378549078    0.477125911042
 P   -3.168259248156    3.439412645985   -1.633882231599
 O   -4.818990668824    3.471502031674   -1.841130990693
 O   -2.952327449364    4.997145125026   -2.177915270037
 O   -2.506513638192    2.422987194064   -2.582591079075
 O   -2.796837299155    3.312987087027   -0.145010711339
 C   -5.422650005946    2.228839758329   -1.452564399217
 H   -5.035680263746    1.401424185887   -2.069647347208
 H   -5.227721203085    2.020570988164   -0.387845641004
 H   -6.502981882451    2.335285930919   -1.615210122643
 C   -1.566707732484    5.370569640420   -2.168145950852
 H   -1.159634723754    5.318977709140   -1.145237148568
 H   -0.984645282670    4.712051975285   -2.832898288284
 H   -1.513011718715    6.404125053310   -2.533697121950
