27

 P    2.935200481914   -3.186410336319    1.513692812630
 O    2.273460481914   -2.169980336319    2.462402812630
 O    2.563780481914   -3.059990336319    0.024822812630
 O    4.585940481914   -3.218500336319    1.720942812630
 O    2.719270481914   -4.744140336319    2.057732812630
 C    5.189600481914   -1.975840336319    1.332372812630
 H    4.802630481914   -1.148420336319    1.949452812630
 H    4.994660481914   -1.767570336319    0.267652812630
 H    6.269930481914   -2.082290336319    1.495012812630
 C    1.333650481914   -5.117570336319    2.047962812630
 H    0.926570481914   -5.065980336319    1.025062812630
 H    0.751590481914   -4.459050336319    2.712722812630
 H    1.279950481914   -6.151120336319    2.413522812630
 K    0.980530481914   -1.064450336319    0.505662812630
 P   -3.240843802700    3.518209333590   -1.671314334469
 O   -4.891575223368    3.550298719278   -1.878563093563
 O   -3.024912003908    5.075941812630   -2.215347372907
 O   -2.579098192736    2.501783881668   -2.620023181945
 O   -2.869421853699    3.391783774632   -0.182442814209
 C   -5.495234560490    2.307636445934   -1.489996502087
 H   -5.108264818290    1.480220873492   -2.107079450078
 H   -5.300305757629    2.099367675768   -0.425277743874
 H   -6.575566436995    2.414082618523   -1.652642225513
 C   -1.639292287028    5.449366328025   -2.205578053722
 H   -1.232219278298    5.397774396745   -1.182669251438
 H   -1.057229837214    4.790848662889   -2.870330391154
 H   -1.585596273259    6.482921740915   -2.571129224820
