27

 P    3.101208116884   -3.366625698043    1.599303517392
 O    2.439468116884   -2.350195698043    2.548013517392
 O    2.729788116884   -3.240205698043    0.110433517392
 O    4.751948116884   -3.398715698043    1.806553517392
 O    2.885278116884   -4.924355698043    2.143343517392
 C    5.355608116884   -2.156055698043    1.417983517392
 H    4.968638116884   -1.328635698043    2.035063517392
 H    5.160668116884   -1.947785698043    0.353263517392
 H    6.435938116884   -2.262505698043    1.580623517392
 C    1.499658116884   -5.297785698043    2.133573517392
 H    1.092578116884   -5.246195698043    1.110673517392
 H    0.917598116884   -4.639265698043    2.798333517392
 H    1.445958116884   -6.331335698043    2.499133517392
 K    1.146538116884   -1.244665698043    0.591273517392
 P   -3.458597466332    3.754599396403   -1.783610643079
 O   -5.109328887000    3.786688782092   -1.990859402173
 O   -3.242665667539    5.312331875444   -2.327643681517
 O   -2.796851856367    2.738173944482   -2.732319490555
 O   -3.087175517330    3.628173837446   -0.294739122819
 C   -5.712988224122    2.544026508747   -1.602292810697
 H   -5.326018481922    1.716610936305   -2.219375758688
 H   -5.518059421261    2.335757738582   -0.537574052484
 H   -6.793320100627    2.650472681337   -1.764938534123
 C   -1.857045950660    5.685756390838   -2.317874362332
 H   -1.449972941929    5.634164459558   -1.294965560048
 H   -1.274983500846    5.027238725703   -2.982626699764
 H   -1.803349936890    6.719311803728   -2.683425533430
