27

 P    3.239547812692   -3.516805166145    1.670645771361
 O    2.577807812692   -2.500375166145    2.619355771361
 O    2.868127812692   -3.390385166145    0.181775771361
 O    4.890287812692   -3.548895166145    1.877895771361
 O    3.023617812692   -5.074535166145    2.214685771361
 C    5.493947812692   -2.306235166145    1.489325771361
 H    5.106977812692   -1.478815166145    2.106405771361
 H    5.299007812692   -2.097965166145    0.424605771361
 H    6.574277812692   -2.412685166145    1.651965771361
 C    1.637997812692   -5.447965166145    2.204915771361
 H    1.230917812692   -5.396375166145    1.182015771361
 H    1.055937812692   -4.789445166145    2.869675771361
 H    1.584297812692   -6.481515166145    2.570475771361
 K    1.284877812692   -1.394845166145    0.662615771361
 P   -3.640058852692    3.951591115415   -1.877190900254
 O   -5.290790273359    3.983680501103   -2.084439659348
 O   -3.424127053899    5.509323594455   -2.421223938692
 O   -2.978313242727    2.935165663493   -2.825899747730
 O   -3.268636903690    3.825165556457   -0.388319379994
 C   -5.894449610482    2.741018227759   -1.695873067872
 H   -5.507479868281    1.913602655317   -2.312956015863
 H   -5.699520807620    2.532749457593   -0.631154309659
 H   -6.974781486986    2.847464400348   -1.858518791298
 C   -2.038507337019    5.882748109849   -2.411454619507
 H   -1.631434328289    5.831156178570   -1.388545817223
 H   -1.456444887205    5.224230444714   -3.076206956939
 H   -1.984811323250    6.916303522740   -2.777005790605
