27

 P    3.294883691015   -3.576876953387    1.699182672949
 O    2.633143691015   -2.560446953387    2.647892672949
 O    2.923463691015   -3.450456953387    0.210312672949
 O    4.945623691015   -3.608966953387    1.906432672949
 O    3.078953691015   -5.134606953387    2.243222672949
 C    5.549283691015   -2.366306953387    1.517862672949
 H    5.162313691015   -1.538886953387    2.134942672949
 H    5.354343691015   -2.158036953387    0.453142672949
 H    6.629613691015   -2.472756953387    1.680502672949
 C    1.693333691015   -5.508036953387    2.233452672949
 H    1.286253691015   -5.456446953387    1.210552672949
 H    1.111273691015   -4.849516953387    2.898212672949
 H    1.639633691015   -6.541586953387    2.599012672949
 K    1.340213691015   -1.454916953387    0.691152672949
 P   -3.712643407235    4.030387803019   -1.914623003124
 O   -5.363374827903    4.062477188708   -2.121871762218
 O   -3.496711608443    5.588120282060   -2.458656041562
 O   -3.050897797271    3.013962351098   -2.863331850600
 O   -3.341221458234    3.903962244061   -0.425751482864
 C   -5.967034165025    2.819814915363   -1.733305170742
 H   -5.580064422825    1.992399342921   -2.350388118733
 H   -5.772105362164    2.611546145198   -0.668586412529
 H   -7.047366041530    2.926261087953   -1.895950894168
 C   -2.111091891563    5.961544797454   -2.448886722377
 H   -1.704018882833    5.909952866174   -1.425977920093
 H   -1.529029441749    5.303027132319   -3.113639059809
 H   -2.057395877794    6.995100210344   -2.814437893475
