27

 P    3.350219569338   -3.636948740628    1.727719574536
 O    2.688479569338   -2.620518740628    2.676429574536
 O    2.978799569338   -3.510528740628    0.238849574536
 O    5.000959569338   -3.669038740628    1.934969574536
 O    3.134289569338   -5.194678740628    2.271759574536
 C    5.604619569338   -2.426378740628    1.546399574536
 H    5.217649569338   -1.598958740628    2.163479574536
 H    5.409679569338   -2.218108740628    0.481679574536
 H    6.684949569338   -2.532828740628    1.709039574536
 C    1.748669569338   -5.568108740628    2.261989574536
 H    1.341589569338   -5.516518740628    1.239089574536
 H    1.166609569338   -4.909588740628    2.926749574536
 H    1.694969569338   -6.601658740628    2.627549574536
 K    1.395549569338   -1.514988740628    0.719689574536
 P   -3.785227961779    4.109184490624   -1.952055105994
 O   -5.435959382447    4.141273876312   -2.159303865088
 O   -3.569296162987    5.666916969664   -2.496088144432
 O   -3.123482351815    3.092759038702   -2.900763953470
 O   -3.413806012778    3.982758931666   -0.463183585734
 C   -6.039618719569    2.898611602968   -1.770737273612
 H   -5.652648977369    2.071196030526   -2.387820221603
 H   -5.844689916708    2.690342832802   -0.706018515399
 H   -7.119950596074    3.005057775557   -1.933382997038
 C   -2.183676446107    6.040341485059   -2.486318825247
 H   -1.776603437377    5.988749553779   -1.463410022963
 H   -1.601613996293    5.381823819923   -3.151071162679
 H   -2.129980432338    7.073896897949   -2.851869996345
