27

 P    3.377887508500   -3.666984634248    1.741988025330
 O    2.716147508500   -2.650554634248    2.690698025330
 O    3.006467508500   -3.540564634248    0.253118025330
 O    5.028627508500   -3.699074634248    1.949238025330
 O    3.161957508500   -5.224714634248    2.286028025330
 C    5.632287508500   -2.456414634248    1.560668025330
 H    5.245317508500   -1.628994634248    2.177748025330
 H    5.437347508500   -2.248144634248    0.495948025330
 H    6.712617508500   -2.562864634248    1.723308025330
 C    1.776337508500   -5.598144634248    2.276258025330
 H    1.369257508500   -5.546554634248    1.253358025330
 H    1.194277508500   -4.939624634248    2.941018025330
 H    1.722637508500   -6.631694634248    2.641818025330
 K    1.423217508500   -1.545024634248    0.733958025330
 P   -3.821520239051    4.148582834426   -1.970771157429
 O   -5.472251659719    4.180672220114   -2.178019916523
 O   -3.605588440259    5.706315313467   -2.514804195867
 O   -3.159774629087    3.132157382504   -2.919480004905
 O   -3.450098290050    4.022157275468   -0.481899637169
 C   -6.075910996841    2.938009946770   -1.789453325047
 H   -5.688941254641    2.110594374328   -2.406536273038
 H   -5.880982193980    2.729741176604   -0.724734566834
 H   -7.156242873346    3.044456119359   -1.952099048473
 C   -2.219968723379    6.079739828861   -2.505034876682
 H   -1.812895714649    6.028147897581   -1.482126074398
 H   -1.637906273565    5.421222163726   -3.169787214114
 H   -2.166272709610    7.113295241751   -2.870586047780
