27

 P    3.405555447661   -3.697020527869    1.756256476124
 O    2.743815447661   -2.680590527869    2.704966476124
 O    3.034135447661   -3.570600527869    0.267386476124
 O    5.056295447661   -3.729110527869    1.963506476124
 O    3.189625447661   -5.254750527869    2.300296476124
 C    5.659955447661   -2.486450527869    1.574936476124
 H    5.272985447661   -1.659030527869    2.192016476124
 H    5.465015447661   -2.278180527869    0.510216476124
 H    6.740285447661   -2.592900527869    1.737576476124
 C    1.804005447661   -5.628180527869    2.290526476124
 H    1.396925447661   -5.576590527869    1.267626476124
 H    1.221945447661   -4.969660527869    2.955286476124
 H    1.750305447661   -6.661730527869    2.656086476124
 K    1.450885447661   -1.575060527869    0.748226476124
 P   -3.857812516323    4.187981178228   -1.989487208864
 O   -5.508543936991    4.220070563917   -2.196735967958
 O   -3.641880717531    5.745713657269   -2.533520247302
 O   -3.196066906359    3.171555726307   -2.938196056340
 O   -3.486390567322    4.061555619270   -0.500615688604
 C   -6.112203274113    2.977408290572   -1.808169376482
 H   -5.725233531913    2.149992718130   -2.425252324473
 H   -5.917274471252    2.769139520407   -0.743450618269
 H   -7.192535150618    3.083854463162   -1.970815099908
 C   -2.256261000651    6.119138172663   -2.523750928117
 H   -1.849187991921    6.067546241383   -1.500842125833
 H   -1.674198550837    5.460620507528   -3.188503265549
 H   -2.202564986882    7.152693585553   -2.889302099215
