27

 P    3.433223386823   -3.727056421490    1.770524926918
 O    2.771483386823   -2.710626421490    2.719234926918
 O    3.061803386823   -3.600636421490    0.281654926918
 O    5.083963386823   -3.759146421490    1.977774926918
 O    3.217293386823   -5.284786421490    2.314564926918
 C    5.687623386823   -2.516486421490    1.589204926918
 H    5.300653386823   -1.689066421490    2.206284926918
 H    5.492683386823   -2.308216421490    0.524484926918
 H    6.767953386823   -2.622936421490    1.751844926918
 C    1.831673386823   -5.658216421490    2.304794926918
 H    1.424593386823   -5.606626421490    1.281894926918
 H    1.249613386823   -4.999696421490    2.969554926918
 H    1.777973386823   -6.691766421490    2.670354926918
 K    1.478553386823   -1.605096421490    0.762494926918
 P   -3.894104793595    4.227379522030   -2.008203260299
 O   -5.544836214263    4.259468907719   -2.215452019393
 O   -3.678172994803    5.785112001071   -2.552236298737
 O   -3.232359183631    3.210954070109   -2.956912107775
 O   -3.522682844594    4.100953963073   -0.519331740039
 C   -6.148495551385    3.016806634374   -1.826885427917
 H   -5.761525809185    2.189391061932   -2.443968375908
 H   -5.953566748524    2.808537864209   -0.762166669704
 H   -7.228827427890    3.123252806964   -1.989531151343
 C   -2.292553277923    6.158536516465   -2.542466979552
 H   -1.885480269193    6.106944585186   -1.519558177268
 H   -1.710490828109    5.500018851330   -3.207219316984
 H   -2.238857264154    7.192091929356   -2.908018150650
