27

 P    3.460891325985   -3.757092315110    1.784793377711
 O    2.799151325985   -2.740662315110    2.733503377711
 O    3.089471325985   -3.630672315110    0.295923377711
 O    5.111631325985   -3.789182315110    1.992043377711
 O    3.244961325985   -5.314822315110    2.328833377711
 C    5.715291325985   -2.546522315110    1.603473377711
 H    5.328321325985   -1.719102315110    2.220553377711
 H    5.520351325985   -2.338252315110    0.538753377711
 H    6.795621325985   -2.652972315110    1.766113377711
 C    1.859341325985   -5.688252315110    2.319063377711
 H    1.452261325985   -5.636662315110    1.296163377711
 H    1.277281325985   -5.029732315110    2.983823377711
 H    1.805641325985   -6.721802315110    2.684623377711
 K    1.506221325985   -1.635132315110    0.776763377711
 P   -3.930397070867    4.266777865833   -2.026919311734
 O   -5.581128491535    4.298867251521   -2.234168070828
 O   -3.714465272074    5.824510344873   -2.570952350172
 O   -3.268651460903    3.250352413911   -2.975628159210
 O   -3.558975121866    4.140352306875   -0.538047791474
 C   -6.184787828657    3.056204978177   -1.845601479352
 H   -5.797818086457    2.228789405735   -2.462684427343
 H   -5.989859025796    2.847936208011   -0.780882721139
 H   -7.265119705162    3.162651150766   -2.008247202778
 C   -2.328845555195    6.197934860268   -2.561183030987
 H   -1.921772546464    6.146342928988   -1.538274228703
 H   -1.746783105381    5.539417195132   -3.225935368419
 H   -2.275149541426    7.231490273158   -2.926734202085
