27

 P    3.488559265146   -3.787128208731    1.799061828505
 O    2.826819265146   -2.770698208731    2.747771828505
 O    3.117139265146   -3.660708208731    0.310191828505
 O    5.139299265146   -3.819218208731    2.006311828505
 O    3.272629265146   -5.344858208731    2.343101828505
 C    5.742959265146   -2.576558208731    1.617741828505
 H    5.355989265146   -1.749138208731    2.234821828505
 H    5.548019265146   -2.368288208731    0.553021828505
 H    6.823289265146   -2.683008208731    1.780381828505
 C    1.887009265146   -5.718288208731    2.333331828505
 H    1.479929265146   -5.666698208731    1.310431828505
 H    1.304949265146   -5.059768208731    2.998091828505
 H    1.833309265146   -6.751838208731    2.698891828505
 K    1.533889265146   -1.665168208731    0.791031828505
 P   -3.966689348139    4.306176209635   -2.045635363169
 O   -5.617420768807    4.338265595324   -2.252884122263
 O   -3.750757549346    5.863908688676   -2.589668401607
 O   -3.304943738175    3.289750757713   -2.994344210645
 O   -3.595267399138    4.179750650677   -0.556763842909
 C   -6.221080105929    3.095603321979   -1.864317530787
 H   -5.834110363729    2.268187749537   -2.481400478778
 H   -6.026151303068    2.887334551813   -0.799598772574
 H   -7.301411982434    3.202049494568   -2.026963254213
 C   -2.365137832467    6.237333204070   -2.579899082422
 H   -1.958064823736    6.185741272790   -1.556990280138
 H   -1.783075382653    5.578815538935   -3.244651419854
 H   -2.311441818698    7.270888616960   -2.945450253520
