27

 P    3.516227204308   -3.817164102351    1.813330279299
 O    2.854487204308   -2.800734102351    2.762040279299
 O    3.144807204308   -3.690744102351    0.324460279299
 O    5.166967204308   -3.849254102351    2.020580279299
 O    3.300297204308   -5.374894102351    2.357370279299
 C    5.770627204308   -2.606594102351    1.632010279299
 H    5.383657204308   -1.779174102351    2.249090279299
 H    5.575687204308   -2.398324102351    0.567290279299
 H    6.850957204308   -2.713044102351    1.794650279299
 C    1.914677204308   -5.748324102351    2.347600279299
 H    1.507597204308   -5.696734102351    1.324700279299
 H    1.332617204308   -5.089804102351    3.012360279299
 H    1.860977204308   -6.781874102351    2.713160279299
 K    1.561557204308   -1.695204102351    0.805300279299
 P   -4.002981625411    4.345574553437   -2.064351414604
 O   -5.653713046079    4.377663939126   -2.271600173698
 O   -3.787049826618    5.903307032478   -2.608384453042
 O   -3.341236015447    3.329149101516   -3.013060262080
 O   -3.631559676410    4.219148994480   -0.575479894344
 C   -6.257372383201    3.135001665781   -1.883033582222
 H   -5.870402641001    2.307586093339   -2.500116530213
 H   -6.062443580340    2.926732895616   -0.818314824009
 H   -7.337704259706    3.241447838371   -2.045679305648
 C   -2.401430109739    6.276731547872   -2.598615133857
 H   -1.994357101008    6.225139616592   -1.575706331573
 H   -1.819367659925    5.618213882737   -3.263367471289
 H   -2.347734095970    7.310286960762   -2.964166304955
