27

 P    3.571563082631   -3.877235889593    1.841867180887
 O    2.909823082631   -2.860805889593    2.790577180887
 O    3.200143082631   -3.750815889593    0.352997180887
 O    5.222303082631   -3.909325889593    2.049117180887
 O    3.355633082631   -5.434965889593    2.385907180887
 C    5.825963082631   -2.666665889593    1.660547180887
 H    5.438993082631   -1.839245889593    2.277627180887
 H    5.631023082631   -2.458395889593    0.595827180887
 H    6.906293082631   -2.773115889593    1.823187180887
 C    1.970013082631   -5.808395889593    2.376137180887
 H    1.562933082631   -5.756805889593    1.353237180887
 H    1.387953082631   -5.149875889593    3.040897180887
 H    1.916313082631   -6.841945889593    2.741697180887
 K    1.616893082631   -1.755275889593    0.833837180887
 P   -4.075566179955    4.424371241042   -2.101783517474
 O   -5.726297600623    4.456460626730   -2.309032276568
 O   -3.859634381162    5.982103720082   -2.645816555912
 O   -3.413820569990    3.407945789120   -3.050492364950
 O   -3.704144230953    4.297945682084   -0.612911997214
 C   -6.329956937745    3.213798353386   -1.920465685091
 H   -5.942987195545    2.386382780944   -2.537548633083
 H   -6.135028134884    3.005529583220   -0.855746926879
 H   -7.410288814250    3.320244525975   -2.083111408518
 C   -2.474014664283    6.355528235477   -2.636047236727
 H   -2.066941655552    6.303936304197   -1.613138434443
 H   -1.891952214469    5.697010570341   -3.300799574159
 H   -2.420318650514    7.389083648367   -3.001598407825
