27

 P    3.792906595924   -4.117523038557    1.956014787237
 O    3.131166595924   -3.101093038557    2.904724787237
 O    3.421486595924   -3.991103038557    0.467144787237
 O    5.443646595924   -4.149613038557    2.163264787237
 O    3.576976595924   -5.675253038557    2.500054787237
 C    6.047306595924   -2.906953038557    1.774694787237
 H    5.660336595924   -2.079533038557    2.391774787237
 H    5.852366595924   -2.698683038557    0.709974787237
 H    7.127636595924   -3.013403038557    1.937334787237
 C    2.191356595924   -6.048683038557    2.490284787237
 H    1.784276595924   -5.997093038557    1.467384787237
 H    1.609296595924   -5.390163038557    3.155044787237
 H    2.137656595924   -7.082233038557    2.855844787237
 K    1.838236595924   -1.995563038557    0.947984787237
 P   -4.365904398130    4.739557991460   -2.251511928954
 O   -6.016635818798    4.771647377148   -2.458760688048
 O   -4.149972599338    6.297290470500   -2.795544967392
 O   -3.704158788166    3.723132539538   -3.200220776430
 O   -3.994482449129    4.613132432502   -0.762640408694
 C   -6.620295155920    3.528985103804   -2.070194096571
 H   -6.233325413720    2.701569531362   -2.687277044563
 H   -6.425366353059    3.320716333638   -1.005475338359
 H   -7.700627032425    3.635431276393   -2.232839819998
 C   -2.764352882458    6.670714985895   -2.785775648207
 H   -2.357279873728    6.619123054615   -1.762866845923
 H   -2.182290432644    6.012197320760   -3.450527985639
 H   -2.710656868689    7.704270398785   -3.151326819305
