28

 P   -1.359735417040    1.650648635890   -0.195011287890
 O   -1.658905417040    2.575028635890    0.982718712110
 O   -1.932985417040    1.816148635890   -1.600971287890
 O    0.303594582960    1.456568635890   -0.327181287890
 O   -1.623815417040    0.061438635890    0.313078712110
 C    0.981934582960    2.702518635890   -0.108791287890
 H    0.659414582960    3.150318635890    0.843038712110
 H    0.761484582960    3.389448635890   -0.949141287890
 H    2.060444582960    2.471348635890   -0.052751287890
 C   -3.032125417040   -0.235401364110    0.227308712110
 H   -3.449815417040    0.131958635890   -0.723911287890
 H   -3.542775417040    0.179748635890    1.107098712110
 H   -3.077465417040   -1.332111364110    0.247858712110
RB    1.374824582960    0.301988635890   -2.447971287890
RB   -0.758735417040   -1.049891364110    2.536328712110
 P    0.941229818860   -1.142605999975    0.134988996785
 O   -0.722098050337   -0.948526793005    0.267158938049
 O    1.205312660825    0.446609143745   -0.373099059021
 O    1.240407422678   -2.066983989311   -1.042739633718
 O    1.514474531754   -1.308099688390    1.540954596340
 C   -1.400437226487   -2.194477022976    0.048770272971
 H   -1.077909531334   -2.642275429408   -0.903059822506
 H   -1.179983567583   -2.881404346720    0.889126172975
 H   -2.478948303815   -1.963309921941   -0.007276603665
 C    2.613615658579    0.743447725870   -0.287327486343
 H    3.031310754755    0.376086307308    0.663895999323
 H    3.124268327226    0.328295197676   -1.167113778767
 H    2.658960142342    1.840158405355   -0.307875695430
