28

 P   -1.416293638133    1.719307436467   -0.203122765965
 O   -1.715463638133    2.643687436467    0.974607234035
 O   -1.989543638133    1.884807436467   -1.609082765965
 O    0.247036361867    1.525227436467   -0.335292765965
 O   -1.680373638133    0.130097436467    0.304967234035
 C    0.925376361867    2.771177436467   -0.116902765965
 H    0.602856361867    3.218977436467    0.834927234035
 H    0.704926361867    3.458107436467   -0.957252765965
 H    2.003886361867    2.540007436467   -0.060862765965
 C   -3.088683638133   -0.166742563533    0.219197234035
 H   -3.506373638133    0.200617436467   -0.732022765965
 H   -3.599333638133    0.248407436467    1.098987234035
 H   -3.134023638133   -1.263452563533    0.239747234035
RB    1.318266361867    0.370647436467   -2.456082765965
RB   -0.815293638133   -0.981232563533    2.528217234035
 P    1.074627168537   -1.304543590157    0.154120604112
 O   -0.588700700661   -1.110464383188    0.286290545377
 O    1.338710010502    0.284671553562   -0.353967451693
 O    1.373804772355   -2.228921579494   -1.023608026390
 O    1.647871881430   -1.470037278573    1.560086203668
 C   -1.267039876811   -2.356414613159    0.067901880299
 H   -0.944512181657   -2.804213019591   -0.883928215178
 H   -1.046586217907   -3.043341936903    0.908257780302
 H   -2.345550954138   -2.125247512123    0.011855003663
 C    2.747013008256    0.581510135688   -0.268195879015
 H    3.164708104432    0.214148717125    0.683027606651
 H    3.257665676902    0.166357607493   -1.147982171439
 H    2.792357492018    1.678220815172   -0.288744088102
