28

 P   -1.510557339955    1.833738770761   -0.216641896089
 O   -1.809727339955    2.758118770761    0.961088103911
 O   -2.083807339955    1.999238770761   -1.622601896089
 O    0.152772660045    1.639658770761   -0.348811896089
 O   -1.774637339955    0.244528770761    0.291448103911
 C    0.831112660045    2.885608770761   -0.130421896089
 H    0.508592660045    3.333408770761    0.821408103911
 H    0.610662660045    3.572538770761   -0.970771896089
 H    1.909622660045    2.654438770761   -0.074381896089
 C   -3.182947339955   -0.052311229239    0.205678103911
 H   -3.600637339955    0.315048770761   -0.745541896089
 H   -3.693597339955    0.362838770761    1.085468103911
 H   -3.228287339955   -1.149021229239    0.226228103911
RB    1.224002660045    0.485078770761   -2.469601896089
RB   -0.909557339955   -0.866801229239    2.514698103911
 P    1.296956084664   -1.574439573795    0.186006616325
 O   -0.366371784533   -1.380360366826    0.318176557590
 O    1.561038926629    0.014775569924   -0.322081439480
 O    1.596133688482   -2.498817563132   -0.991722014177
 O    1.870200797558   -1.739933262211    1.591972215881
 C   -1.044710960683   -2.626310596797    0.099787892512
 H   -0.722183265530   -3.074109003229   -0.852042202965
 H   -0.824257301779   -3.313237920541    0.940143792515
 H   -2.123222038011   -2.395143495761    0.043741015876
 C    2.969341924383    0.311614152050   -0.236309866802
 H    3.387037020559   -0.055747266513    0.714913618864
 H    3.479994593030   -0.103538376145   -1.116096159226
 H    3.014686408146    1.408324831534   -0.256858075889
