28

 P   -1.548262820684    1.879511304479   -0.222049548139
 O   -1.847432820684    2.803891304479    0.955680451861
 O   -2.121512820684    2.045011304479   -1.628009548139
 O    0.115067179316    1.685431304479   -0.354219548139
 O   -1.812342820684    0.290301304479    0.286040451861
 C    0.793407179316    2.931381304479   -0.135829548139
 H    0.470887179316    3.379181304479    0.816000451861
 H    0.572957179316    3.618311304479   -0.976179548139
 H    1.871917179316    2.700211304479   -0.079789548139
 C   -3.220652820684   -0.006538695521    0.200270451861
 H   -3.638342820684    0.360821304479   -0.750949548139
 H   -3.731302820684    0.408611304479    1.080060451861
 H   -3.265992820684   -1.103248695521    0.220820451861
RB    1.186297179316    0.530851304479   -2.475009548139
RB   -0.947262820684   -0.821028695521    2.509290451861
 P    1.385887651115   -1.682397967251    0.198761021211
 O   -0.277440218082   -1.488318760281    0.330930962475
 O    1.649970493080   -0.093182823531   -0.309327034595
 O    1.685065254933   -2.606775956587   -0.978967609292
 O    1.959132364009   -1.847891655666    1.604726620766
 C   -0.955779394232   -2.734268990252    0.112542297397
 H   -0.633251699079   -3.182067396684   -0.839287798080
 H   -0.735325735328   -3.421196313996    0.952898197400
 H   -2.034290471560   -2.503101889216    0.056495420761
 C    3.058273490834    0.203655758594   -0.223555461917
 H    3.475968587010   -0.163705659968    0.727668023749
 H    3.568926159481   -0.211496769600   -1.103341754341
 H    3.103617974597    1.300366438079   -0.244103671004
