28

 P   -1.623673782142    1.971056371914   -0.232864852238
 O   -1.922843782142    2.895436371914    0.944865147762
 O   -2.196923782142    2.136556371914   -1.638824852238
 O    0.039656217858    1.776976371914   -0.365034852238
 O   -1.887753782142    0.381846371914    0.275225147762
 C    0.717996217858    3.022926371914   -0.146644852238
 H    0.395476217858    3.470726371914    0.805185147762
 H    0.497546217858    3.709856371914   -0.986994852238
 H    1.796506217858    2.791756371914   -0.090604852238
 C   -3.296063782142    0.085006371914    0.189455147762
 H   -3.713753782142    0.452366371914   -0.761764852238
 H   -3.806713782142    0.500156371914    1.069245147762
 H   -3.341403782142   -1.011703628086    0.210005147762
RB    1.110886217858    0.622396371914   -2.485824852238
RB   -1.022673782142   -0.729483628086    2.498475147762
 P    1.563750784017   -1.898314754161    0.224269830981
 O   -0.099577085180   -1.704235547191    0.356439772246
 O    1.827833625982   -0.309099610441   -0.283818224825
 O    1.862928387835   -2.822692743497   -0.953458799521
 O    2.136995496911   -2.063808442576    1.630235430536
 C   -0.777916261330   -2.950185777163    0.138051107168
 H   -0.455388566177   -3.397984183595   -0.813778988309
 H   -0.557462602426   -3.637113100907    0.978407007171
 H   -1.856427338658   -2.719018676127    0.082004230532
 C    3.236136623736   -0.012261028316   -0.198046652147
 H    3.653831719912   -0.379622446878    0.753176833519
 H    3.746789292383   -0.427413556511   -1.077832944571
 H    3.281481107499    1.084449651169   -0.218594861234
