28

 P   -1.699084743600    2.062601439350   -0.243680156338
 O   -1.998254743600    2.986981439350    0.934049843662
 O   -2.272334743600    2.228101439350   -1.649640156338
 O   -0.035754743600    1.868521439350   -0.375850156338
 O   -1.963164743600    0.473391439350    0.264409843662
 C    0.642585256400    3.114471439350   -0.157460156338
 H    0.320065256400    3.562271439350    0.794369843662
 H    0.422135256400    3.801401439350   -0.997810156338
 H    1.721095256400    2.883301439350   -0.101420156338
 C   -3.371474743600    0.176551439350    0.178639843662
 H   -3.789164743600    0.543911439350   -0.772580156338
 H   -3.882124743600    0.591701439350    1.058429843662
 H   -3.416814743600   -0.920158560650    0.199189843662
RB    1.035475256400    0.713941439350   -2.496640156338
RB   -1.098084743600   -0.637938560650    2.487659843662
 P    1.741613916919   -2.114231541071    0.249778640751
 O    0.078286047722   -1.920152334102    0.381948582016
 O    2.005696758884   -0.525016397352   -0.258309415054
 O    2.040791520737   -3.038609530408   -0.927949989751
 O    2.314858629813   -2.279725229487    1.655744240307
 C   -0.600053128428   -3.166102564073    0.163559916938
 H   -0.277525433275   -3.613900970505   -0.788270178539
 H   -0.379599469524   -3.853029887817    1.003915816941
 H   -1.678564205756   -2.934935463037    0.107513040302
 C    3.413999756638   -0.228177815226   -0.172537842376
 H    3.831694852814   -0.595539233789    0.778685643290
 H    3.924652425285   -0.643330343421   -1.052324134800
 H    3.459344240401    0.868532864258   -0.193086051463
