28

 P   -1.755642964693    2.131260239926   -0.251791634413
 O   -2.054812964693    3.055640239926    0.925938365587
 O   -2.328892964693    2.296760239926   -1.657751634413
 O   -0.092312964693    1.937180239926   -0.383961634413
 O   -2.019722964693    0.542050239926    0.256298365587
 C    0.586027035307    3.183130239926   -0.165571634413
 H    0.263507035307    3.630930239926    0.786258365587
 H    0.365577035307    3.870060239926   -1.005921634413
 H    1.664537035307    2.951960239926   -0.109531634413
 C   -3.428032964693    0.245210239926    0.170528365587
 H   -3.845722964693    0.612570239926   -0.780691634413
 H   -3.938682964693    0.660360239926    1.050318365587
 H   -3.473372964693   -0.851499760074    0.191078365587
RB    0.978917035307    0.782600239926   -2.504751634413
RB   -1.154642964693   -0.569279760074    2.479548365587
 P    1.875011266596   -2.276169131254    0.268910248079
 O    0.211683397398   -2.082089924285    0.401080189344
 O    2.139094108561   -0.686953987535   -0.239177807727
 O    2.174188870414   -3.200547120590   -0.908818382423
 O    2.448255979489   -2.441662819670    1.674875847635
 C   -0.466655778752   -3.328040154256    0.182691524266
 H   -0.144128083598   -3.775838560688   -0.769138571211
 H   -0.246202119848   -4.014967478000    1.023047424269
 H   -1.545166856079   -3.096873053220    0.126644647630
 C    3.547397106315   -0.390115405409   -0.153406235048
 H    3.965092202491   -0.757476823971    0.797817250617
 H    4.058049774961   -0.805267933604   -1.033192527473
 H    3.592741590077    0.706595274075   -0.173954444136
