28

 P   -1.831053926151    2.222805307362   -0.262606938512
 O   -2.130223926151    3.147185307362    0.915123061488
 O   -2.404303926151    2.388305307362   -1.668566938512
 O   -0.167723926151    2.028725307362   -0.394776938512
 O   -2.095133926151    0.633595307362    0.245483061488
 C    0.510616073849    3.274675307362   -0.176386938512
 H    0.188096073849    3.722475307362    0.775443061488
 H    0.290166073849    3.961605307362   -1.016736938512
 H    1.589126073849    3.043505307362   -0.120346938512
 C   -3.503443926151    0.336755307362    0.159713061488
 H   -3.921133926151    0.704115307362   -0.791506938512
 H   -4.014093926151    0.751905307362    1.039503061488
 H   -3.548783926151   -0.759954692638    0.180263061488
RB    0.903506073849    0.874145307362   -2.515566938512
RB   -1.230053926151   -0.477734692638    2.468733061488
 P    2.052874399498   -2.492085918164    0.294419057849
 O    0.389546530300   -2.298006711195    0.426588999114
 O    2.316957241463   -0.902870774445   -0.213668997956
 O    2.352052003316   -3.416463907501   -0.883309572653
 O    2.626119112392   -2.657579606580    1.700384657405
 C   -0.288792645850   -3.543956941166    0.208200334036
 H    0.033735049304   -3.991755347598   -0.743629761441
 H   -0.068338986946   -4.230884264910    1.048556234039
 H   -1.367303723177   -3.312789840130    0.152153457400
 C    3.725260239217   -0.606032192320   -0.127897425278
 H    4.142955335393   -0.973393610882    0.823326060388
 H    4.235912907863   -1.021184720514   -1.007683717702
 H    3.770604722979    0.490678487165   -0.148445634365
