28

 P   -1.868759406880    2.268577841079   -0.268014590562
 O   -2.167929406880    3.192957841079    0.909715409438
 O   -2.442009406880    2.434077841079   -1.673974590562
 O   -0.205429406880    2.074497841079   -0.400184590562
 O   -2.132839406880    0.679367841079    0.240075409438
 C    0.472910593120    3.320447841079   -0.181794590562
 H    0.150390593120    3.768247841079    0.770035409438
 H    0.252460593120    4.007377841079   -1.022144590562
 H    1.551420593120    3.089277841079   -0.125754590562
 C   -3.541149406880    0.382527841079    0.154305409438
 H   -3.958839406880    0.749887841079   -0.796914590562
 H   -4.051799406880    0.797677841079    1.034095409438
 H   -3.586489406880   -0.714182158921    0.174855409438
RB    0.865800593120    0.919917841079   -2.520974590562
RB   -1.267759406880   -0.431962158921    2.463325409438
 P    2.141805965949   -2.600044311620    0.307173462735
 O    0.478478096751   -2.405965104650    0.439343403999
 O    2.405888807914   -1.010829167900   -0.200914593071
 O    2.440983569767   -3.524422300956   -0.870555167768
 O    2.715050678843   -2.765538000035    1.713139062290
 C   -0.199861079399   -3.651915334622    0.220954738921
 H    0.122666615755   -4.099713741054   -0.730875356556
 H    0.020592579505   -4.338842658365    1.061310638925
 H   -1.278372156726   -3.420748233586    0.164907862285
 C    3.814191805668   -0.713990585775   -0.115143020393
 H    4.231886901844   -1.081352004337    0.836080465273
 H    4.324844474314   -1.129143113969   -0.994929312817
 H    3.859536289430    0.382720093710   -0.135691229480
