28

 P   -1.925317627973    2.337236641656   -0.276126068637
 O   -2.224487627973    3.261616641656    0.901603931363
 O   -2.498567627973    2.502736641656   -1.682086068637
 O   -0.261987627973    2.143156641656   -0.408296068637
 O   -2.189397627973    0.748026641656    0.231963931363
 C    0.416352372027    3.389106641656   -0.189906068637
 H    0.093832372027    3.836906641656    0.761923931363
 H    0.195902372027    4.076036641656   -1.030256068637
 H    1.494862372027    3.157936641656   -0.133866068637
 C   -3.597707627973    0.451186641656    0.146193931363
 H   -4.015397627973    0.818546641656   -0.805026068637
 H   -4.108357627973    0.866336641656    1.025983931363
 H   -3.643047627973   -0.645523358344    0.166743931363
RB    0.809242372027    0.988576641656   -2.529086068637
RB   -1.324317627973   -0.363303358344    2.455213931363
 P    2.275203315625   -2.761981901802    0.326305070062
 O    0.611875446428   -2.567902694833    0.458475011327
 O    2.539286157590   -1.172766758083   -0.181782985743
 O    2.574380919443   -3.686359891139   -0.851423560440
 O    2.848448028519   -2.927475590218    1.732270669618
 C   -0.066463729722   -3.813852924804    0.240086346249
 H    0.256063965432   -4.261651331236   -0.711743749228
 H    0.153989929182   -4.500780248548    1.080442246252
 H   -1.144974807050   -3.582685823768    0.184039469613
 C    3.947589155344   -0.875928175958   -0.096011413065
 H    4.365284251520   -1.243289594520    0.855212072601
 H    4.458241823991   -1.291080704152   -0.975797705489
 H    3.992933639107    0.220782503527   -0.116559622152
