28

 P   -1.981875849067    2.405895442232   -0.284237546711
 O   -2.281045849067    3.330275442232    0.893492453289
 O   -2.555125849067    2.571395442232   -1.690197546711
 O   -0.318545849067    2.211815442232   -0.416407546711
 O   -2.245955849067    0.816685442232    0.223852453289
 C    0.359794150933    3.457765442232   -0.198017546711
 H    0.037274150933    3.905565442232    0.753812453289
 H    0.139344150933    4.144695442232   -1.038367546711
 H    1.438304150933    3.226595442232   -0.141977546711
 C   -3.654265849067    0.519845442232    0.138082453289
 H   -4.071955849067    0.887205442232   -0.813137546711
 H   -4.164915849067    0.934995442232    1.017872453289
 H   -3.699605849067   -0.576864557768    0.158632453289
RB    0.752684150933    1.057235442232   -2.537197546711
RB   -1.380875849067   -0.294644557768    2.447102453289
 P    2.408600665302   -2.923919491985    0.345436677390
 O    0.745272796104   -2.729840285016    0.477606618655
 O    2.672683507267   -1.334704348266   -0.162651378415
 O    2.707778269120   -3.848297481322   -0.832291953112
 O    2.981845378196   -3.089413180401    1.751402276946
 C    0.066933619954   -3.975790514987    0.259217953577
 H    0.389461315108   -4.423588921419   -0.692612141900
 H    0.287387278858   -4.662717838731    1.099573853580
 H   -1.011577457373   -3.744623413951    0.203171076941
 C    4.080986505021   -1.037865766140   -0.076879805737
 H    4.498681601197   -1.405227184703    0.874343679929
 H    4.591639173667   -1.453018294335   -0.956666098161
 H    4.126330988783    0.058844913344   -0.097428014825
