28

 P   -2.019581329795    2.451667975950   -0.289645198761
 O   -2.318751329795    3.376047975950    0.888084801239
 O   -2.592831329795    2.617167975950   -1.695605198761
 O   -0.356251329795    2.257587975950   -0.421815198761
 O   -2.283661329795    0.862457975950    0.218444801239
 C    0.322088670205    3.503537975950   -0.203425198761
 H   -0.000431329795    3.951337975950    0.748404801239
 H    0.101638670205    4.190467975950   -1.043775198761
 H    1.400598670205    3.272367975950   -0.147385198761
 C   -3.691971329795    0.565617975950    0.132674801239
 H   -4.109661329795    0.932977975950   -0.818545198761
 H   -4.202621329795    0.980767975950    1.012464801239
 H   -3.737311329795   -0.531092024050    0.153224801239
RB    0.714978670205    1.103007975950   -2.542605198761
RB   -1.418581329795   -0.248872024050    2.441694801239
 P    2.497532231753   -3.031877885440    0.358191082275
 O    0.834204362555   -2.837798678471    0.490361023540
 O    2.761615073718   -1.442662741721   -0.149896973530
 O    2.796709835571   -3.956255874777   -0.819537548227
 O    3.070776944647   -3.197371573856    1.764156681831
 C    0.155865186405   -4.083748908442    0.271972358462
 H    0.478392881559   -4.531547314874   -0.679857737015
 H    0.376318845309   -4.770676232186    1.112328258465
 H   -0.922645890922   -3.852581807406    0.215925481826
 C    4.169918071472   -1.145824159596   -0.064125400852
 H    4.587613167648   -1.513185578158    0.887098084814
 H    4.680570740118   -1.560976687790   -0.943911693276
 H    4.215262555234   -0.049113480111   -0.084673609939
