28

 P   -2.057286810524    2.497440509668   -0.295052850811
 O   -2.356456810524    3.421820509668    0.882677149189
 O   -2.630536810524    2.662940509668   -1.701012850811
 O   -0.393956810524    2.303360509668   -0.427222850811
 O   -2.321366810524    0.908230509668    0.213037149189
 C    0.284383189476    3.549310509668   -0.208832850811
 H   -0.038136810524    3.997110509668    0.742997149189
 H    0.063933189476    4.236240509668   -1.049182850811
 H    1.362893189476    3.318140509668   -0.152792850811
 C   -3.729676810524    0.611390509668    0.127267149189
 H   -4.147366810524    0.978750509668   -0.823952850811
 H   -4.240326810524    1.026540509668    1.007057149189
 H   -3.775016810524   -0.485319490332    0.147817149189
RB    0.677273189476    1.148780509668   -2.548012850811
RB   -1.456286810524   -0.203099490332    2.436287149189
 P    2.586463798204   -3.139836278896    0.370945487161
 O    0.923135929006   -2.945757071926    0.503115428425
 O    2.850546640169   -1.550621135176   -0.137142568645
 O    2.885641402022   -4.064214268232   -0.806783143342
 O    3.159708511098   -3.305329967311    1.776911086716
 C    0.244796752856   -4.191707301897    0.284726763347
 H    0.567324448010   -4.639505708329   -0.667103332130
 H    0.465250411760   -4.878634625641    1.125082663350
 H   -0.833714324471   -3.960540200862    0.228679886711
 C    4.258849637923   -1.253782553051   -0.051370995967
 H    4.676544734099   -1.621143971613    0.899852489699
 H    4.769502306569   -1.668935081245   -0.931157288391
 H    4.304194121685   -0.157071873566   -0.071919205054
