28

 P   -2.094992291253    2.543213043386   -0.300460502860
 O   -2.394162291253    3.467593043386    0.877269497140
 O   -2.668242291253    2.708713043386   -1.706420502860
 O   -0.431662291253    2.349133043386   -0.432630502860
 O   -2.359072291253    0.954003043386    0.207629497140
 C    0.246677708747    3.595083043386   -0.214240502860
 H   -0.075842291253    4.042883043386    0.737589497140
 H    0.026227708747    4.282013043386   -1.054590502860
 H    1.325187708747    3.363913043386   -0.158200502860
 C   -3.767382291253    0.657163043386    0.121859497140
 H   -4.185072291253    1.024523043386   -0.829360502860
 H   -4.278032291253    1.072313043386    1.001649497140
 H   -3.812722291253   -0.439546956614    0.142409497140
RB    0.639567708747    1.194553043386   -2.553420502860
RB   -1.493992291253   -0.157326956614    2.430879497140
 P    2.675395364655   -3.247794672351    0.383699892046
 O    1.012067495457   -3.053715465381    0.515869833311
 O    2.939478206620   -1.658579528631   -0.124388163760
 O    2.974572968473   -4.172172661687   -0.794028738456
 O    3.248640077549   -3.413288360766    1.789665491601
 C    0.333728319307   -4.299665695353    0.297481168233
 H    0.656256014461   -4.747464101785   -0.654348927244
 H    0.554181978211   -4.986593019097    1.137837068236
 H   -0.744782758020   -4.068498594317    0.241434291597
 C    4.347781204374   -1.361740946506   -0.038616591082
 H    4.765476300550   -1.729102365068    0.912606894584
 H    4.858433873020   -1.776893474700   -0.918402883506
 H    4.393125688136   -0.265030267021   -0.059164800169
