28

 P   -2.170403252711    2.634758110821   -0.311275806960
 O   -2.469573252711    3.559138110821    0.866454193040
 O   -2.743653252711    2.800258110821   -1.717235806960
 O   -0.507073252711    2.440678110821   -0.443445806960
 O   -2.434483252711    1.045548110821    0.196814193040
 C    0.171266747289    3.686628110821   -0.225055806960
 H   -0.151253252711    4.134428110821    0.726774193040
 H   -0.049183252711    4.373558110821   -1.065405806960
 H    1.249776747289    3.455458110821   -0.169015806960
 C   -3.842793252711    0.748708110821    0.111044193040
 H   -4.260483252711    1.116068110821   -0.840175806960
 H   -4.353443252711    1.163858110821    0.990834193040
 H   -3.888133252711   -0.348001889179    0.131594193040
RB    0.564156747289    1.286098110821   -2.564235806960
RB   -1.569403252711   -0.065781889179    2.420064193040
 P    2.853258497557   -3.463711459261    0.409208701816
 O    1.189930628359   -3.269632252292    0.541378643081
 O    3.117341339522   -1.874496315542   -0.098879353990
 O    3.152436101375   -4.388089448597   -0.768519928686
 O    3.426503210451   -3.629205147677    1.815174301372
 C    0.511591452209   -4.515582482263    0.322989978003
 H    0.834119147363   -4.963380888695   -0.628840117474
 H    0.732045111113   -5.202509806007    1.163345878006
 H   -0.566919625118   -4.284415381227    0.266943101367
 C    4.525644337276   -1.577657733416   -0.013107781311
 H    4.943339433452   -1.945019151979    0.938115704354
 H    5.036297005922   -1.992810261611   -0.892894073736
 H    4.570988821038   -0.480947053932   -0.033655990399
