28

 P   -2.189255993076    2.657644377680   -0.313979632985
 O   -2.488425993076    3.582024377680    0.863750367015
 O   -2.762505993076    2.823144377680   -1.719939632985
 O   -0.525925993076    2.463564377680   -0.446149632985
 O   -2.453335993076    1.068434377680    0.194110367015
 C    0.152414006924    3.709514377680   -0.227759632985
 H   -0.170105993076    4.157314377680    0.724070367015
 H   -0.068035993076    4.396444377680   -1.068109632985
 H    1.230924006924    3.478344377680   -0.171719632985
 C   -3.861645993076    0.771594377680    0.108340367015
 H   -4.279335993076    1.138954377680   -0.842879632985
 H   -4.372295993076    1.186744377680    0.988130367015
 H   -3.906985993076   -0.325115622320    0.128890367015
RB    0.545304006924    1.308984377680   -2.566939632985
RB   -1.588255993076   -0.042895622320    2.417360367015
 P    2.897724280782   -3.517690655989    0.415585904259
 O    1.234396411585   -3.323611449019    0.547755845523
 O    3.161807122747   -1.928475512269   -0.092502151547
 O    3.196901884600   -4.442068645325   -0.762142726243
 O    3.470968993676   -3.683184344404    1.821551503814
 C    0.556057235435   -4.569561678991    0.329367180446
 H    0.878584930589   -5.017360085423   -0.622462915032
 H    0.776510894339   -5.256489002734    1.169723080449
 H   -0.522453841893   -4.338394577955    0.273320303810
 C    4.570110120501   -1.631636930144   -0.006730578869
 H    4.987805216677   -1.998998348706    0.944492906797
 H    5.080762789148   -2.046789458338   -0.886516871293
 H    4.615454604264   -0.534926250659   -0.027278787956
