28

 P   -2.245814214169    2.726303178257   -0.322091111059
 O   -2.544984214169    3.650683178257    0.855638888941
 O   -2.819064214169    2.891803178257   -1.728051111059
 O   -0.582484214169    2.532223178257   -0.454261111059
 O   -2.509894214169    1.137093178257    0.185998888941
 C    0.095855785831    3.778173178257   -0.235871111059
 H   -0.226664214169    4.225973178257    0.715958888941
 H   -0.124594214169    4.465103178257   -1.076221111059
 H    1.174365785831    3.547003178257   -0.179831111059
 C   -3.918204214169    0.840253178257    0.100228888941
 H   -4.335894214169    1.207613178257   -0.850991111059
 H   -4.428854214169    1.255403178257    0.980018888941
 H   -3.963544214169   -0.256456821743    0.120778888941
RB    0.488745785831    1.377643178257   -2.575051111059
RB   -1.644814214169    0.025763178257    2.409248888941
 P    3.031121630459   -3.679628246172    0.434717511586
 O    1.367793761261   -3.485549039202    0.566887452851
 O    3.295204472424   -2.090413102452   -0.073370544219
 O    3.330299234277   -4.604006235508   -0.743011118916
 O    3.604366343353   -3.845121934587    1.840683111142
 C    0.689454585111   -4.731499269173    0.348498787773
 H    1.011982280265   -5.179297675605   -0.603331307704
 H    0.909908244015   -5.418426592917    1.188854687776
 H   -0.389056492216   -4.500332168138    0.292451911137
 C    4.703507470178   -1.793574520327    0.012401028459
 H    5.121202566354   -2.160935938889    0.963624514125
 H    5.214160138824   -2.208727048521   -0.867385263965
 H    4.748851953940   -0.696863840842   -0.008147180628
