28

 P   -2.264666954533    2.749189445115   -0.324794937084
 O   -2.563836954533    3.673569445115    0.852935062916
 O   -2.837916954533    2.914689445115   -1.730754937084
 O   -0.601336954533    2.555109445115   -0.456964937084
 O   -2.528746954533    1.159979445115    0.183295062916
 C    0.077003045467    3.801059445115   -0.238574937084
 H   -0.245516954533    4.248859445115    0.713255062916
 H   -0.143446954533    4.487989445115   -1.078924937084
 H    1.155513045467    3.569889445115   -0.182534937084
 C   -3.937056954533    0.863139445115    0.097525062916
 H   -4.354746954533    1.230499445115   -0.853694937084
 H   -4.447706954533    1.278289445115    0.977315062916
 H   -3.982396954533   -0.233570554885    0.118075062916
RB    0.469893045467    1.400529445115   -2.577754937084
RB   -1.663666954533    0.048649445115    2.406545062916
 P    3.075587413684   -3.733607442899    0.441094714029
 O    1.412259544487   -3.539528235930    0.573264655294
 O    3.339670255649   -2.144392299180   -0.066993341777
 O    3.374765017502   -4.657985432235   -0.736633916473
 O    3.648832126578   -3.899101131315    1.847060313585
 C    0.733920368337   -4.785478465901    0.354875990216
 H    1.056448063491   -5.233276872333   -0.596954105261
 H    0.954374027241   -5.472405789645    1.195231890219
 H   -0.344590708991   -4.554311364865    0.298829113580
 C    4.747973253403   -1.847553717054    0.018778230902
 H    5.165668349579   -2.214915135617    0.970001716567
 H    5.258625922050   -2.262706245249   -0.861008061523
 H    4.793317737166   -0.750843037570   -0.001769978186
