28

 P   -2.302372435262    2.794961978833   -0.330202589134
 O   -2.601542435262    3.719341978833    0.847527410866
 O   -2.875622435262    2.960461978833   -1.736162589134
 O   -0.639042435262    2.600881978833   -0.462372589134
 O   -2.566452435262    1.205751978833    0.177887410866
 C    0.039297564738    3.846831978833   -0.243982589134
 H   -0.283222435262    4.294631978833    0.707847410866
 H   -0.181152435262    4.533761978833   -1.084332589134
 H    1.117807564738    3.615661978833   -0.187942589134
 C   -3.974762435262    0.908911978833    0.092117410866
 H   -4.392452435262    1.276271978833   -0.859102589134
 H   -4.485412435262    1.324061978833    0.971907410866
 H   -4.020102435262   -0.187798021167    0.112667410866
RB    0.432187564738    1.446301978833   -2.583162589134
RB   -1.701372435262    0.094421978833    2.401137410866
 P    3.164518980135   -3.841565836354    0.453849118914
 O    1.501191110938   -3.647486629385    0.586019060179
 O    3.428601822100   -2.252350692635   -0.054238936891
 O    3.463696583953   -4.765943825691   -0.723879511588
 O    3.737763693029   -4.007059524770    1.859814718470
 C    0.822851934788   -4.893436859356    0.367630395101
 H    1.145379629942   -5.341235265788   -0.584199700376
 H    1.043305593692   -5.580364183100    1.207986295104
 H   -0.255659142540   -4.662269758320    0.311583518465
 C    4.836904819854   -1.955512110509    0.031532635787
 H    5.254599916030   -2.322873529072    0.982756121453
 H    5.347557488501   -2.370664638704   -0.848253656637
 H    4.882249303617   -0.858801431025    0.010984426700
