28

 P   -2.321225175627    2.817848245692   -0.332906415159
 O   -2.620395175627    3.742228245692    0.844823584841
 O   -2.894475175627    2.983348245692   -1.738866415159
 O   -0.657895175627    2.623768245692   -0.465076415159
 O   -2.585305175627    1.228638245692    0.175183584841
 C    0.020444824373    3.869718245692   -0.246686415159
 H   -0.302075175627    4.317518245692    0.705143584841
 H   -0.200005175627    4.556648245692   -1.087036415159
 H    1.098954824373    3.638548245692   -0.190646415159
 C   -3.993615175627    0.931798245692    0.089413584841
 H   -4.411305175627    1.299158245692   -0.861806415159
 H   -4.504265175627    1.346948245692    0.969203584841
 H   -4.038955175627   -0.164911754308    0.109963584841
RB    0.413334824373    1.469188245692   -2.585866415159
RB   -1.720225175627    0.117308245692    2.398433584841
 P    3.208984763361   -3.895545033082    0.460226321357
 O    1.545656894163   -3.701465826113    0.592396262622
 O    3.473067605326   -2.306329889363   -0.047861734449
 O    3.508162367179   -4.819923022418   -0.717502309145
 O    3.782229476255   -4.061038721497    1.866191920912
 C    0.867317718013   -4.947416056084    0.374007597544
 H    1.189845413167   -5.395214462516   -0.577822497933
 H    1.087771376917   -5.634343379828    1.214363497547
 H   -0.211193359314   -4.716248955048    0.317960720908
 C    4.881370603080   -2.009491307237    0.037909838229
 H    5.299065699256   -2.376852725799    0.989133323895
 H    5.392023271726   -2.424643835432   -0.841876454195
 H    4.926715086842   -0.912780627752    0.017361629142
