28

 P   -2.340077915991    2.840734512551   -0.335610241184
 O   -2.639247915991    3.765114512551    0.842119758816
 O   -2.913327915991    3.006234512551   -1.741570241184
 O   -0.676747915991    2.646654512551   -0.467780241184
 O   -2.604157915991    1.251524512551    0.172479758816
 C    0.001592084009    3.892604512551   -0.249390241184
 H   -0.320927915991    4.340404512551    0.702439758816
 H   -0.218857915991    4.579534512551   -1.089740241184
 H    1.080102084009    3.661434512551   -0.193350241184
 C   -4.012467915991    0.954684512551    0.086709758816
 H   -4.430157915991    1.322044512551   -0.864510241184
 H   -4.523117915991    1.369834512551    0.966499758816
 H   -4.057807915991   -0.142025487449    0.107259758816
RB    0.394482084009    1.492074512551   -2.588570241184
RB   -1.739077915991    0.140194512551    2.395729758816
 P    3.253450546586   -3.949524229810    0.466603523799
 O    1.590122677389   -3.755445022840    0.598773465064
 O    3.517533388551   -2.360309086090   -0.041484532006
 O    3.552628150404   -4.873902219146   -0.711125106703
 O    3.826695259480   -4.115017918225    1.872569123355
 C    0.911783501239   -5.001395252811    0.380384799986
 H    1.234311196393   -5.449193659243   -0.571445295491
 H    1.132237160143   -5.688322576555    1.220740699989
 H   -0.166727576089   -4.770228151776    0.324337923350
 C    4.925836386305   -2.063470503965    0.044287040672
 H    5.343531482481   -2.430831922527    0.995510526338
 H    5.436489054952   -2.478623032159   -0.835499251752
 H    4.971180870068   -0.966759824480    0.023738831585
