28

 P   -2.415488877449    2.932279579986   -0.346425545283
 O   -2.714658877449    3.856659579986    0.831304454717
 O   -2.988738877449    3.097779579986   -1.752385545283
 O   -0.752158877449    2.738199579986   -0.478595545283
 O   -2.679568877449    1.343069579986    0.161664454717
 C   -0.073818877449    3.984149579986   -0.260205545283
 H   -0.396338877449    4.431949579986    0.691624454717
 H   -0.294268877449    4.671079579986   -1.100555545283
 H    1.004691122551    3.752979579986   -0.204165545283
 C   -4.087878877449    1.046229579986    0.075894454717
 H   -4.505568877449    1.413589579986   -0.875325545283
 H   -4.598528877449    1.461379579986    0.955684454717
 H   -4.133218877449   -0.050480420014    0.096444454717
RB    0.319071122551    1.583619579986   -2.599385545283
RB   -1.814488877449    0.231739579986    2.384914454717
 P    3.431313679488   -4.165441016720    0.492112333570
 O    1.767985810291   -3.971361809750    0.624282274835
 O    3.695396521453   -2.576225873001   -0.015975722236
 O    3.730491283306   -5.089819006056   -0.685616296932
 O    4.004558392382   -4.330934705135    1.898077933125
 C    1.089646634141   -5.217312039722    0.405893609757
 H    1.412174329295   -5.665110446154   -0.545936485720
 H    1.310100293045   -5.904239363466    1.246249509760
 H    0.011135556813   -4.986144938686    0.349846733121
 C    5.103699519207   -2.279387290875    0.069795850442
 H    5.521394615383   -2.646748709437    1.021019336108
 H    5.614352187854   -2.694539819070   -0.809990441982
 H    5.149044002970   -1.182676611390    0.049247641355
