28

 P   -2.453194358178    2.978052113704   -0.351833197333
 O   -2.752364358178    3.902432113704    0.825896802667
 O   -3.026444358178    3.143552113704   -1.757793197333
 O   -0.789864358178    2.783972113704   -0.484003197333
 O   -2.717274358178    1.388842113704    0.156256802667
 C   -0.111524358178    4.029922113704   -0.265613197333
 H   -0.434044358178    4.477722113704    0.686216802667
 H   -0.331974358178    4.716852113704   -1.105963197333
 H    0.966985641822    3.798752113704   -0.209573197333
 C   -4.125584358178    1.092002113704    0.070486802667
 H   -4.543274358178    1.459362113704   -0.880733197333
 H   -4.636234358178    1.507152113704    0.950276802667
 H   -4.170924358178   -0.004707886296    0.091036802667
RB    0.281365641822    1.629392113704   -2.604793197333
RB   -1.852194358178    0.277512113704    2.379506802667
 P    3.520245245939   -4.273399410175    0.504866738455
 O    1.856917376742   -4.079320203206    0.637036679720
 O    3.784328087904   -2.684184266456   -0.003221317351
 O    3.819422849757   -5.197777399511   -0.672861892047
 O    4.093489958833   -4.438893098591    1.910832338011
 C    1.178578200592   -5.325270433177    0.418648014642
 H    1.501105895746   -5.773068839609   -0.533182080835
 H    1.399031859496   -6.012197756921    1.259003914645
 H    0.100067123264   -5.094103332141    0.362601138006
 C    5.192631085658   -2.387345684330    0.082550255328
 H    5.610326181834   -2.754707102893    1.033773740993
 H    5.703283754305   -2.802498212525   -0.797236037097
 H    5.237975569421   -1.290635004846    0.062002046240
