28

 P   -2.472047098542    3.000938380563   -0.354537023358
 O   -2.771217098542    3.925318380563    0.823192976642
 O   -3.045297098542    3.166438380563   -1.760497023358
 O   -0.808717098542    2.806858380563   -0.486707023358
 O   -2.736127098542    1.411728380563    0.153552976642
 C   -0.130377098542    4.052808380563   -0.268317023358
 H   -0.452897098542    4.500608380563    0.683512976642
 H   -0.350827098542    4.739738380563   -1.108667023358
 H    0.948132901458    3.821638380563   -0.212277023358
 C   -4.144437098542    1.114888380563    0.067782976642
 H   -4.562127098542    1.482248380563   -0.883437023358
 H   -4.655087098542    1.530038380563    0.947572976642
 H   -4.189777098542    0.018178380563    0.088332976642
RB    0.262512901458    1.652278380563   -2.607497023358
RB   -1.871047098542    0.300398380563    2.376802976642
 P    3.564711029165   -4.327378606903    0.511243940898
 O    1.901383159967   -4.133299399933    0.643413882162
 O    3.828793871130   -2.738163463183    0.003155885092
 O    3.863888632983   -5.251756596239   -0.666484689605
 O    4.137955742059   -4.492872295318    1.917209540453
 C    1.223043983817   -5.379249629905    0.425025217084
 H    1.545571678971   -5.827048036337   -0.526804878393
 H    1.443497642721   -6.066176953648    1.265381117088
 H    0.144532906490   -5.148082528869    0.368978340448
 C    5.237096868884   -2.441324881058    0.088927457770
 H    5.654791965060   -2.808686299620    1.040150943436
 H    5.747749537530   -2.856477409252   -0.790858834654
 H    5.282441352646   -1.344614201573    0.068379248683
