28

 P   -2.528605319636    3.069597181139   -0.362648501433
 O   -2.827775319636    3.993977181139    0.815081498567
 O   -3.101855319636    3.235097181139   -1.768608501433
 O   -0.865275319636    2.875517181139   -0.494818501433
 O   -2.792685319636    1.480387181139    0.145441498567
 C   -0.186935319636    4.121467181139   -0.276428501433
 H   -0.509455319636    4.569267181139    0.675401498567
 H   -0.407385319636    4.808397181139   -1.116778501433
 H    0.891574680364    3.890297181139   -0.220388501433
 C   -4.200995319636    1.183547181139    0.059671498567
 H   -4.618685319636    1.550907181139   -0.891548501433
 H   -4.711645319636    1.598697181139    0.939461498567
 H   -4.246335319636    0.086837181139    0.080221498567
RB    0.205954680364    1.720937181139   -2.615608501433
RB   -1.927605319636    0.369057181139    2.368691498567
 P    3.698108378841   -4.489316197086    0.530375548225
 O    2.034780509644   -4.295236990116    0.662545489490
 O    3.962191220806   -2.900101053366    0.022287492420
 O    3.997285982659   -5.413694186422   -0.647353082277
 O    4.271353091735   -4.654809885501    1.936341147781
 C    1.356441333494   -5.541187220087    0.444156824412
 H    1.678969028648   -5.988985626519   -0.507673271065
 H    1.576894992398   -6.228114543831    1.284512724415
 H    0.277930256166   -5.310020119051    0.388109947776
 C    5.370494218560   -2.603262471241    0.108059065098
 H    5.788189314736   -2.970623889803    1.059282550764
 H    5.881146887207   -3.018414999435   -0.771727227326
 H    5.415838702323   -1.506551791756    0.087510856011
