28

 P   -2.547458060000    3.092483447998   -0.365352327458
 O   -2.846628060000    4.016863447998    0.812377672542
 O   -3.120708060000    3.257983447998   -1.771312327458
 O   -0.884128060000    2.898403447998   -0.497522327458
 O   -2.811538060000    1.503273447998    0.142737672542
 C   -0.205788060000    4.144353447998   -0.279132327458
 H   -0.528308060000    4.592153447998    0.672697672542
 H   -0.426238060000    4.831283447998   -1.119482327458
 H    0.872721940000    3.913183447998   -0.223092327458
 C   -4.219848060000    1.206433447998    0.056967672542
 H   -4.637538060000    1.573793447998   -0.894252327458
 H   -4.730498060000    1.621583447998    0.936757672542
 H   -4.265188060000    0.109723447998    0.077517672542
RB    0.187101940000    1.743823447998   -2.618312327458
RB   -1.946458060000    0.391943447998    2.365987672542
 P    3.742574162067   -4.543295393813    0.536752750668
 O    2.079246292869   -4.349216186844    0.668922691933
 O    4.006657004032   -2.954080250094    0.028664694862
 O    4.041751765885   -5.467673383149   -0.640975879834
 O    4.315818874961   -4.708789082229    1.942718350224
 C    1.400907116719   -5.595166416815    0.450534026855
 H    1.723434811873   -6.042964823247   -0.501296068622
 H    1.621360775623   -6.282093740559    1.290889926858
 H    0.322396039392   -5.363999315779    0.394487150219
 C    5.414960001786   -2.657241667968    0.114436267541
 H    5.832655097962   -3.024603086531    1.065659753206
 H    5.925612670432   -3.072394196163   -0.765350024884
 H    5.460304485548   -1.560530988484    0.093888058453
