28

 P   -2.566310800365    3.115369714857   -0.368056153482
 O   -2.865480800365    4.039749714857    0.809673846518
 O   -3.139560800365    3.280869714857   -1.774016153482
 O   -0.902980800365    2.921289714857   -0.500226153482
 O   -2.830390800365    1.526159714857    0.140033846518
 C   -0.224640800365    4.167239714857   -0.281836153482
 H   -0.547160800365    4.615039714857    0.669993846518
 H   -0.445090800365    4.854169714857   -1.122186153482
 H    0.853869199635    3.936069714857   -0.225796153482
 C   -4.238700800365    1.229319714857    0.054263846518
 H   -4.656390800365    1.596679714857   -0.896956153482
 H   -4.749350800365    1.644469714857    0.934053846518
 H   -4.284040800365    0.132609714857    0.074813846518
RB    0.168249199635    1.766709714857   -2.621016153482
RB   -1.965310800365    0.414829714857    2.363283846518
 P    3.787039945292   -4.597274590541    0.543129953111
 O    2.123712076095   -4.403195383571    0.675299894375
 O    4.051122787257   -3.008059446821    0.035041897305
 O    4.086217549110   -5.521652579877   -0.634598677392
 O    4.360284658186   -4.762768278956    1.949095552666
 C    1.445372899945   -5.649145613543    0.456911229297
 H    1.767900595099   -6.096944019975   -0.494918866180
 H    1.665826558849   -6.336072937286    1.297267129300
 H    0.366861822617   -5.417978512507    0.400864352661
 C    5.459425785011   -2.711220864696    0.120813469983
 H    5.877120881187   -3.078582283258    1.072036955649
 H    5.970078453658   -3.126373392890   -0.758972822441
 H    5.504770268774   -1.614510185211    0.100265260896
