28

 P   -2.585163540729    3.138255981716   -0.370759979507
 O   -2.884333540729    4.062635981716    0.806970020493
 O   -3.158413540729    3.303755981716   -1.776719979507
 O   -0.921833540729    2.944175981716   -0.502929979507
 O   -2.849243540729    1.549045981716    0.137330020493
 C   -0.243493540729    4.190125981716   -0.284539979507
 H   -0.566013540729    4.637925981716    0.667290020493
 H   -0.463943540729    4.877055981716   -1.124889979507
 H    0.835016459271    3.958955981716   -0.228499979507
 C   -4.257553540729    1.252205981716    0.051560020493
 H   -4.675243540729    1.619565981716   -0.899659979507
 H   -4.768203540729    1.667355981716    0.931350020493
 H   -4.302893540729    0.155495981716    0.072110020493
RB    0.149396459271    1.789595981716   -2.623719979507
RB   -1.984163540729    0.437715981716    2.360580020493
 P    3.831505728518   -4.651253787268    0.549507155553
 O    2.168177859320   -4.457174580299    0.681677096818
 O    4.095588570483   -3.062038643549    0.041419099748
 O    4.130683332336   -5.575631776605   -0.628221474949
 O    4.404750441412   -4.816747475684    1.955472755109
 C    1.489838683170   -5.703124810270    0.463288431740
 H    1.812366378324   -6.150923216702   -0.488541663737
 H    1.710292342074   -6.390052134014    1.303644331743
 H    0.411327605843   -5.471957709234    0.407241555104
 C    5.503891568237   -2.765200061423    0.127190672426
 H    5.921586664413   -3.132561479986    1.078414158092
 H    6.014544236883   -3.180352589618   -0.752595619999
 H    5.549236051999   -1.668489381939    0.106642463338
