28

 P   -2.641721761822    3.206914782293   -0.378871457582
 O   -2.940891761822    4.131294782293    0.798858542418
 O   -3.214971761822    3.372414782293   -1.784831457582
 O   -0.978391761822    3.012834782293   -0.511041457582
 O   -2.905801761822    1.617704782293    0.129218542418
 C   -0.300051761822    4.258784782293   -0.292651457582
 H   -0.622571761822    4.706584782293    0.659178542418
 H   -0.520501761822    4.945714782293   -1.133001457582
 H    0.778458238178    4.027614782293   -0.236611457582
 C   -4.314111761822    1.320864782293    0.043448542418
 H   -4.731801761822    1.688224782293   -0.907771457582
 H   -4.824761761822    1.736014782293    0.923238542418
 H   -4.359451761822    0.224154782293    0.063998542418
RB    0.092838238178    1.858254782293   -2.631831457582
RB   -2.040721761822    0.506374782293    2.352468542418
 P    3.964903078194   -4.813191377451    0.568638762881
 O    2.301575208997   -4.619112170482    0.700808704146
 O    4.228985920159   -3.223976233732    0.060550707075
 O    4.264080682012   -5.737569366787   -0.609089867621
 O    4.538147791088   -4.978685065867    1.974604362437
 C    1.623236032847   -5.865062400453    0.482420039068
 H    1.945763728001   -6.312860806885   -0.469410056409
 H    1.843689691751   -6.551989724197    1.322775939071
 H    0.544724955519   -5.633895299417    0.426373162432
 C    5.637288917913   -2.927137651606    0.146322279753
 H    6.054984014089   -3.294499070168    1.097545765419
 H    6.147941586560   -3.342290179801   -0.733464012671
 H    5.682633401676   -1.830426972122    0.125774070666
