28

 P   -2.679427242551    3.252687316010   -0.384279109632
 O   -2.978597242551    4.177067316010    0.793450890368
 O   -3.252677242551    3.418187316010   -1.790239109632
 O   -1.016097242551    3.058607316010   -0.516449109632
 O   -2.943507242551    1.663477316010    0.123810890368
 C   -0.337757242551    4.304557316010   -0.298059109632
 H   -0.660277242551    4.752357316010    0.653770890368
 H   -0.558207242551    4.991487316010   -1.138409109632
 H    0.740752757449    4.073387316010   -0.242019109632
 C   -4.351817242551    1.366637316010    0.038040890368
 H   -4.769507242551    1.733997316010   -0.913179109632
 H   -4.862467242551    1.781787316010    0.917830890368
 H   -4.397157242551    0.269927316010    0.058590890368
RB    0.055132757449    1.904027316010   -2.637239109632
RB   -2.078427242551    0.552147316010    2.347060890368
 P    4.053834644645   -4.921149770906    0.581393167766
 O    2.390506775448   -4.727070563937    0.713563109031
 O    4.317917486610   -3.331934627187    0.073305111960
 O    4.353012248463   -5.845527760243   -0.596335462736
 O    4.627079357539   -5.086643459322    1.987358767322
 C    1.712167599298   -5.973020793908    0.495174443953
 H    2.034695294452   -6.420819200340   -0.456655651524
 H    1.932621258202   -6.659948117652    1.335530343956
 H    0.633656521970   -5.741853692872    0.439127567317
 C    5.726220484364   -3.035096045061    0.159076684639
 H    6.143915580540   -3.402457463624    1.110300170304
 H    6.236873153011   -3.450248573256   -0.720709607786
 H    5.771564968127   -1.938385365577    0.138528475551
