28

 P   -2.717132723280    3.298459849728   -0.389686761681
 O   -3.016302723280    4.222839849728    0.788043238319
 O   -3.290382723280    3.463959849728   -1.795646761681
 O   -1.053802723280    3.104379849728   -0.521856761681
 O   -2.981212723280    1.709249849728    0.118403238319
 C   -0.375462723280    4.350329849728   -0.303466761681
 H   -0.697982723280    4.798129849728    0.648363238319
 H   -0.595912723280    5.037259849728   -1.143816761681
 H    0.703047276720    4.119159849728   -0.247426761681
 C   -4.389522723280    1.412409849728    0.032633238319
 H   -4.807212723280    1.779769849728   -0.918586761681
 H   -4.900172723280    1.827559849728    0.912423238319
 H   -4.434862723280    0.315699849728    0.053183238319
RB    0.017427276720    1.949799849728   -2.642646761681
RB   -2.116132723280    0.597919849728    2.341653238319
 P    4.142766211096   -5.029108164362    0.594147572651
 O    2.479438341899   -4.835028957392    0.726317513916
 O    4.406849053061   -3.439893020642    0.086059516846
 O    4.441943814914   -5.953486153698   -0.583581057851
 O    4.716010923990   -5.194601852777    2.000113172207
 C    1.801099165749   -6.080979187363    0.507928848838
 H    2.123626860903   -6.528777593795   -0.443901246639
 H    2.021552824653   -6.767906511107    1.348284748841
 H    0.722588088421   -5.849812086327    0.451881972202
 C    5.815152050815   -3.143054438517    0.171831089524
 H    6.232847146991   -3.510415857079    1.123054575190
 H    6.325804719462   -3.558206966711   -0.707955202900
 H    5.860496534578   -2.046343759032    0.151282880437
