28

 P   -2.754838204009    3.344232383446   -0.395094413731
 O   -3.054008204009    4.268612383446    0.782635586269
 O   -3.328088204009    3.509732383446   -1.801054413731
 O   -1.091508204009    3.150152383446   -0.527264413731
 O   -3.018918204009    1.755022383446    0.112995586269
 C   -0.413168204009    4.396102383446   -0.308874413731
 H   -0.735688204009    4.843902383446    0.642955586269
 H   -0.633618204009    5.083032383446   -1.149224413731
 H    0.665341795991    4.164932383446   -0.252834413731
 C   -4.427228204009    1.458182383446    0.027225586269
 H   -4.844918204009    1.825542383446   -0.923994413731
 H   -4.937878204009    1.873332383446    0.907015586269
 H   -4.472568204009    0.361472383446    0.047775586269
RB   -0.020278204009    1.995572383446   -2.648054413731
RB   -2.153838204009    0.643692383446    2.336245586269
 P    4.231697777547   -5.137066557817    0.606901977536
 O    2.568369908350   -4.942987350847    0.739071918801
 O    4.495780619512   -3.547851414097    0.098813921731
 O    4.530875381365   -6.061444547153   -0.570826652966
 O    4.804942490441   -5.302560246232    2.012867577092
 C    1.890030732200   -6.188937580819    0.520683253723
 H    2.212558427354   -6.636735987251   -0.431146841754
 H    2.110484391104   -6.875864904562    1.361039153726
 H    0.811519654872   -5.957770479783    0.464636377087
 C    5.904083617266   -3.251012831972    0.184585494409
 H    6.321778713442   -3.618374250534    1.135808980075
 H    6.414736285913   -3.666165360166   -0.695200798015
 H    5.949428101029   -2.154302152487    0.164037285322
