28

 P   -2.849101905831    3.458663717740   -0.408613543856
 O   -3.148271905831    4.383043717740    0.769116456144
 O   -3.422351905831    3.624163717740   -1.814573543856
 O   -1.185771905831    3.264583717740   -0.540783543856
 O   -3.113181905831    1.869453717740    0.099476456144
 C   -0.507431905831    4.510533717740   -0.322393543856
 H   -0.829951905831    4.958333717740    0.629436456144
 H   -0.727881905831    5.197463717740   -1.162743543856
 H    0.571078094169    4.279363717740   -0.266353543856
 C   -4.521491905831    1.572613717740    0.013706456144
 H   -4.939181905831    1.939973717740   -0.937513543856
 H   -5.032141905831    1.987763717740    0.893496456144
 H   -4.566831905831    0.475903717740    0.034256456144
RB   -0.114541905831    2.110003717740   -2.661573543856
RB   -2.248101905831    0.758123717740    2.322726456144
 P    4.454026693675   -5.406962541455    0.638787989749
 O    2.790698824477   -5.212883334485    0.770957931014
 O    4.718109535640   -3.817747397735    0.130699933944
 O    4.753204297493   -6.331340530791   -0.538940640753
 O    5.027271406569   -5.572456229870    2.044753589305
 C    2.112359648327   -6.458833564457    0.552569265936
 H    2.434887343481   -6.906631970888   -0.399260829541
 H    2.332813307231   -7.145760888200    1.392925165939
 H    1.033848571000   -6.227666463421    0.496522389300
 C    6.126412533394   -3.520908815610    0.216471506622
 H    6.544107629570   -3.888270234172    1.167694992288
 H    6.637065202040   -3.936061343804   -0.663314785802
 H    6.171757017156   -2.424198136125    0.195923297535
