28

 P   -2.924512867289    3.550208785176   -0.419428847955
 O   -3.223682867289    4.474588785176    0.758301152045
 O   -3.497762867289    3.715708785176   -1.825388847955
 O   -1.261182867289    3.356128785176   -0.551598847955
 O   -3.188592867289    1.960998785176    0.088661152045
 C   -0.582842867289    4.602078785176   -0.333208847955
 H   -0.905362867289    5.049878785176    0.618621152045
 H   -0.803292867289    5.289008785176   -1.173558847955
 H    0.495667132711    4.370908785176   -0.277168847955
 C   -4.596902867289    1.664158785176    0.002891152045
 H   -5.014592867289    2.031518785176   -0.948328847955
 H   -5.107552867289    2.079308785176    0.882681152045
 H   -4.642242867289    0.567448785176    0.023441152045
RB   -0.189952867289    2.201548785176   -2.672388847955
RB   -2.323512867289    0.849668785176    2.311911152045
 P    4.631889826577   -5.622879328365    0.664296799520
 O    2.968561957379   -5.428800121396    0.796466740785
 O    4.895972668542   -4.033664184646    0.156208743714
 O    4.931067430395   -6.547257317701   -0.513431830982
 O    5.205134539471   -5.788373016781    2.070262399075
 C    2.290222781229   -6.674750351367    0.578078075707
 H    2.612750476383   -7.122548757799   -0.373752019770
 H    2.510676440133   -7.361677675111    1.418433975710
 H    1.211711703902   -6.443583250331    0.522031199071
 C    6.304275666296   -3.736825602520    0.241980316392
 H    6.721970762472   -4.104187021082    1.193203802058
 H    6.814928334942   -4.151978130715   -0.637805976032
 H    6.349620150058   -2.640114923036    0.221432107305
