28

 P   -2.962218348018    3.595981318893   -0.424836500005
 O   -3.261388348018    4.520361318893    0.752893499995
 O   -3.535468348018    3.761481318893   -1.830796500005
 O   -1.298888348018    3.401901318893   -0.557006500005
 O   -3.226298348018    2.006771318893    0.083253499995
 C   -0.620548348018    4.647851318893   -0.338616500005
 H   -0.943068348018    5.095651318893    0.613213499995
 H   -0.840998348018    5.334781318893   -1.178966500005
 H    0.457961651982    4.416681318893   -0.282576500005
 C   -4.634608348018    1.709931318893   -0.002516500005
 H   -5.052298348018    2.077291318893   -0.953736500005
 H   -5.145258348018    2.125081318893    0.877273499995
 H   -4.679948348018    0.613221318893    0.018033499995
RB   -0.227658348018    2.247321318893   -2.677796500005
RB   -2.361218348018    0.895441318893    2.306503499995
 P    4.720821393028   -5.730837721820    0.677051204405
 O    3.057493523830   -5.536758514851    0.809221145670
 O    4.984904234993   -4.141622578101    0.168963148599
 O    5.019998996846   -6.655215711157   -0.500677426097
 O    5.294066105922   -5.896331410236    2.083016803961
 C    2.379154347680   -6.782708744822    0.590832480592
 H    2.701682042834   -7.230507151254   -0.360997614885
 H    2.599608006584   -7.469636068566    1.431188380595
 H    1.300643270353   -6.551541643786    0.534785603956
 C    6.393207232747   -3.844783995975    0.254734721278
 H    6.810902328923   -4.212145414538    1.205958206943
 H    6.903859901393   -4.259936524170   -0.625051571147
 H    6.438551716509   -2.748073316491    0.234186512190
