28

 P   -3.037629309476    3.687526386329   -0.435651804104
 O   -3.336799309476    4.611906386329    0.742078195896
 O   -3.610879309476    3.853026386329   -1.841611804104
 O   -1.374299309476    3.493446386329   -0.567821804104
 O   -3.301709309476    2.098316386329    0.072438195896
 C   -0.695959309476    4.739396386329   -0.349431804104
 H   -1.018479309476    5.187196386329    0.602398195896
 H   -0.916409309476    5.426326386329   -1.189781804104
 H    0.382550690524    4.508226386329   -0.293391804104
 C   -4.710019309476    1.801476386329   -0.013331804104
 H   -5.127709309476    2.168836386329   -0.964551804104
 H   -5.220669309476    2.216626386329    0.866458195896
 H   -4.755359309476    0.704766386329    0.007218195896
RB   -0.303069309476    2.338866386329   -2.688611804104
RB   -2.436629309476    0.986986386329    2.295688195896
 P    4.898684525930   -5.946754508731    0.702560014175
 O    3.235356656732   -5.752675301761    0.834729955440
 O    5.162767367895   -4.357539365011    0.194471958370
 O    5.197862129748   -6.871132498067   -0.475168616327
 O    5.471929238824   -6.112248197146    2.108525613731
 C    2.557017480582   -6.998625531732    0.616341290362
 H    2.879545175736   -7.446423938164   -0.335488805115
 H    2.777471139486   -7.685552855476    1.456697190365
 H    1.478506403255   -6.767458430697    0.560294413726
 C    6.571070365649   -4.060700782886    0.280243531048
 H    6.988765461825   -4.428062201448    1.231467016714
 H    7.081723034295   -4.475853311080   -0.599542761376
 H    6.616414849411   -2.963990103401    0.259695321961
