17

 N   -0.554429963970    0.514196803672    2.212967555269
 C   -0.970099963970    1.239976803672    3.449147555269
 H   -1.224199963970    0.559836803672    1.432067555269
 H   -0.391699963970   -0.486463196328    2.364117555269
 H    0.308930036030    0.862266803672    1.774067555269
 H   -0.178819963970    1.139076803672    4.198977555269
 H   -1.901749963970    0.799726803672    3.818797555269
 H   -1.122239963970    2.294326803672    3.197507555269
CL    0.129090036030   -0.119723196328   -0.515252444731
 N    0.413584273593   -0.383572955041   -1.650790349700
 C    0.829253331745   -1.109347241825   -2.886972605817
 H    1.083353056927   -0.429208395711   -0.869883682148
 H    0.250847713355    0.617085183251   -1.801937967384
 H   -0.449777122060   -0.731648756672   -1.211881218199
 H    0.037973575853   -1.008451337132   -3.636798994210
 H    1.760900598781   -0.669090440598   -3.256622564154
 H    0.981396541220   -2.163697366445   -2.635326968811
