17

 N   -0.577439321848    0.535536475000    2.304807721395
 C   -0.993109321848    1.261316475000    3.540987721395
 H   -1.247209321848    0.581176475000    1.523907721395
 H   -0.414709321848   -0.465123525000    2.455957721395
 H    0.285920678152    0.883606475000    1.865907721395
 H   -0.201829321848    1.160416475000    4.290817721395
 H   -1.924759321848    0.821066475000    3.910637721395
 H   -1.145249321848    2.315666475000    3.289347721395
CL    0.106080678152   -0.098383525000   -0.423412278605
 N    0.461698475105   -0.428195723392   -1.842834659815
 C    0.877367533258   -1.153970010175   -3.079016915932
 H    1.131467258440   -0.473831164061   -1.061927992264
 H    0.298961914868    0.572462414901   -1.993982277500
 H   -0.401662920548   -0.776271525022   -1.403925528314
 H    0.086087777366   -1.053074105482   -3.828843304326
 H    1.809014800293   -0.713713208948   -3.448666874269
 H    1.029510742733   -2.208320134795   -2.827371278926
