17

 N   -0.592778893767    0.549762922553    2.366034498813
 C   -1.008448893767    1.275542922553    3.602214498813
 H   -1.262548893767    0.595402922553    1.585134498813
 H   -0.430048893767   -0.450897077447    2.517184498813
 H    0.270581106233    0.897832922553    1.927134498813
 H   -0.217168893767    1.174642922553    4.352044498813
 H   -1.940098893767    0.835292922553    3.971864498813
 H   -1.160588893767    2.329892922553    3.350574498813
CL    0.090741106233   -0.084157077447   -0.362185501187
 N    0.493774609447   -0.457944235625   -1.970864199892
 C    0.909443667599   -1.183718522409   -3.207046456009
 H    1.163543392781   -0.503579676294   -1.189957532341
 H    0.331038049209    0.542713902667   -2.122011817577
 H   -0.369586786206   -0.806020037256   -1.531955068391
 H    0.118163911707   -1.082822617715   -3.956872844403
 H    1.841090934635   -0.743461721181   -3.576696414347
 H    1.061586877074   -2.238068647029   -2.955400819003
