17

 N   -0.615788251646    0.571102593881    2.457874664940
 C   -1.031458251646    1.296882593881    3.694054664940
 H   -1.285558251646    0.616742593881    1.676974664940
 H   -0.453058251646   -0.429557406119    2.609024664940
 H    0.247571748354    0.919172593881    2.018974664940
 H   -0.240178251646    1.195982593881    4.443884664940
 H   -1.963108251646    0.856632593881    4.063704664940
 H   -1.183598251646    2.351232593881    3.442414664940
CL    0.067731748354   -0.062817406119   -0.270345335060
 N    0.541888810959   -0.502567003975   -2.162908510008
 C    0.957557869112   -1.228341290759   -3.399090766125
 H    1.211657594294   -0.548202444645   -1.382001842457
 H    0.379152250722    0.498091134317   -2.314056127693
 H   -0.321472584694   -0.850642805606   -1.723999378507
 H    0.166278113220   -1.127445386066   -4.148917154518
 H    1.889205136147   -0.788084489531   -3.768740724462
 H    1.109701078587   -2.282691415379   -3.147445129119
