17

 N   -0.623458037605    0.578215817657    2.488488053649
 C   -1.039128037605    1.303995817657    3.724668053649
 H   -1.293228037605    0.623855817657    1.707588053649
 H   -0.460728037605   -0.422444182343    2.639638053649
 H    0.239901962395    0.926285817657    2.049588053649
 H   -0.247848037605    1.203095817657    4.474498053649
 H   -1.970778037605    0.863745817657    4.094318053649
 H   -1.191268037605    2.358345817657    3.473028053649
CL    0.060061962395   -0.055704182343   -0.239731946351
 N    0.557926878130   -0.517441260092   -2.226923280046
 C    0.973595936283   -1.243215546875   -3.463105536163
 H    1.227695661464   -0.563076700761   -1.446016612495
 H    0.395190317892    0.483216878200   -2.378070897731
 H   -0.305434517523   -0.865517061723   -1.788014148546
 H    0.182316180390   -1.142319642182   -4.212931924557
 H    1.905243203318   -0.802958745648   -3.832755494501
 H    1.125739145757   -2.297565671496   -3.211459899157
