17

 N   -0.631127823565    0.585329041433    2.519101442357
 C   -1.046797823565    1.311109041433    3.755281442357
 H   -1.300897823565    0.630969041433    1.738201442357
 H   -0.468397823565   -0.415330958567    2.670251442357
 H    0.232232176435    0.933399041433    2.080201442357
 H   -0.255517823565    1.210209041433    4.505111442357
 H   -1.978447823565    0.870859041433    4.124931442357
 H   -1.198937823565    2.365459041433    3.503641442357
CL    0.052392176435   -0.048590958567   -0.209118557643
 N    0.573964945301   -0.532315516209   -2.290938050085
 C    0.989634003453   -1.258089802992   -3.527120306202
 H    1.243733728635   -0.577950956878   -1.510031382534
 H    0.411228385063    0.468342622083   -2.442085667770
 H   -0.289396450352   -0.880391317840   -1.852028918584
 H    0.198354247561   -1.157193898299   -4.276946694596
 H    1.921281270489   -0.817833001765   -3.896770264539
 H    1.141777212928   -2.312439927612   -3.275474669196
