17

 N   -0.638797609524    0.592442265209    2.549714831066
 C   -1.054467609524    1.318222265209    3.785894831066
 H   -1.308567609524    0.638082265209    1.768814831066
 H   -0.476067609524   -0.408217734791    2.700864831066
 H    0.224562390476    0.940512265209    2.110814831066
 H   -0.263187609524    1.217322265209    4.535724831066
 H   -1.986117609524    0.877972265209    4.155544831066
 H   -1.206607609524    2.372572265209    3.534254831066
CL    0.044722390476   -0.041477734791   -0.178505168934
 N    0.590003012472   -0.547189772325   -2.354952820123
 C    1.005672070624   -1.272964059109   -3.591135076240
 H    1.259771795806   -0.592825212995   -1.574046152572
 H    0.427266452234    0.453468365967   -2.506100437808
 H   -0.273358383181   -0.895265573956   -1.916043688623
 H    0.214392314732   -1.172068154416   -4.340961464634
 H    1.937319337660   -0.832707257882   -3.960785034578
 H    1.157815280099   -2.327314183729   -3.339489439234
