17

 N   -0.654137181443    0.606668712761    2.610941608484
 C   -1.069807181443    1.332448712761    3.847121608484
 H   -1.323907181443    0.652308712761    1.830041608484
 H   -0.491407181443   -0.393991287239    2.762091608484
 H    0.209222818557    0.954738712761    2.172041608484
 H   -0.278527181443    1.231548712761    4.596951608484
 H   -2.001457181443    0.892198712761    4.216771608484
 H   -1.221947181443    2.386798712761    3.595481608484
CL    0.029382818557   -0.027251287239   -0.117278391516
 N    0.622079146813   -0.576938284559   -2.482982360200
 C    1.037748204966   -1.302712571342   -3.719164616318
 H    1.291847930148   -0.622573725228   -1.702075692649
 H    0.459342586576    0.423719853733   -2.634129977885
 H   -0.241282248840   -0.925014086190   -2.044073228700
 H    0.246468449074   -1.201816666649   -4.468991004711
 H    1.969395472001   -0.862455770115   -4.088814574655
 H    1.189891414441   -2.357062695963   -3.467518979311
