17

 N   -0.715495469118    0.663574502969    2.855848718155
 C   -1.131165469118    1.389354502969    4.092028718155
 H   -1.385265469118    0.709214502969    2.074948718155
 H   -0.552765469118   -0.337085497031    3.006998718155
 H    0.147864530882    1.011644502969    2.416948718155
 H   -0.339885469118    1.288454502969    4.841858718155
 H   -2.062815469118    0.949104502969    4.461678718155
 H   -1.283305469118    2.443704502969    3.840388718155
CL   -0.031975469118    0.029654502969    0.127628718155
 N    0.750383684180   -0.695932333493   -2.995100520509
 C    1.166052742332   -1.421706620276   -4.231282776626
 H    1.420152467514   -0.741567774162   -2.214193852958
 H    0.587647123942    0.304725804799   -3.146248138193
 H   -0.112977711473   -1.044008135124   -2.556191389008
 H    0.374772986440   -1.320810715583   -4.981109165019
 H    2.097700009368   -0.981449819049   -4.600932734963
 H    1.318195951807   -2.476056744897   -3.979637139620
