17

 N   -0.769183970834    0.713367069402    3.070142439117
 C   -1.184853970834    1.439147069402    4.306322439117
 H   -1.438953970834    0.759007069402    2.289242439117
 H   -0.606453970834   -0.287292930598    3.221292439117
 H    0.094176029166    1.061437069402    2.631242439117
 H   -0.393573970834    1.338247069402    5.056152439117
 H   -2.116503970834    0.998897069402    4.675972439117
 H   -1.336993970834    2.493497069402    4.054682439117
CL   -0.085663970834    0.079447069402    0.341922439117
 N    0.862650154375   -0.800052126310   -3.443203910778
 C    1.278319212528   -1.525826413094   -4.679386166895
 H    1.532418937710   -0.845687566980   -2.662297243227
 H    0.699913594138    0.200606011982   -3.594351528463
 H   -0.000711241278   -1.148127927941   -3.004294779278
 H    0.487039456636   -1.424930508400   -5.429212555289
 H    2.209966479563   -1.085569611866   -5.049036125233
 H    1.430462422003   -2.580176537714   -4.427740529889
