17

 N   -0.799863114672    0.741819964506    3.192595993952
 C   -1.215533114672    1.467599964506    4.428775993952
 H   -1.469633114672    0.787459964506    2.411695993952
 H   -0.637133114672   -0.258840035494    3.343745993952
 H    0.063496885328    1.089889964506    2.753695993952
 H   -0.424253114672    1.366699964506    5.178605993952
 H   -2.147183114672    1.027349964506    4.798425993952
 H   -1.367673114672    2.521949964506    4.177135993952
CL   -0.116343114672    0.107899964506    0.464375993952
 N    0.926802423059   -0.859549150777   -3.699262990932
 C    1.342471481211   -1.585323437561   -4.935445247050
 H    1.596571206393   -0.905184591447   -2.918356323381
 H    0.764065862821    0.141108987515   -3.850410608617
 H    0.063441027405   -1.207624952408   -3.260353859432
 H    0.551191725319   -1.484427532867   -5.685271635443
 H    2.274118748246   -1.145066636333   -5.305095205387
 H    1.494614690686   -2.639673562181   -4.683799610043
