17

 N   -0.807532900632    0.748933188282    3.223209382661
 C   -1.223202900632    1.474713188282    4.459389382661
 H   -1.477302900632    0.794573188282    2.442309382661
 H   -0.644802900632   -0.251726811718    3.374359382661
 H    0.055827099368    1.097003188282    2.784309382661
 H   -0.431922900632    1.373813188282    5.209219382661
 H   -2.154852900632    1.034463188282    4.829039382661
 H   -1.375342900632    2.529063188282    4.207749382661
CL   -0.124012900632    0.115013188282    0.494989382661
 N    0.942840490229   -0.874423406894   -3.763277760971
 C    1.358509548382   -1.600197693677   -4.999460017088
 H    1.612609273564   -0.920058847563   -2.982371093420
 H    0.780103929992    0.126234731398   -3.914425378656
 H    0.079479094576   -1.222499208525   -3.324368629470
 H    0.567229792490   -1.499301788984   -5.749286405482
 H    2.290156815417   -1.159940892450   -5.369109975425
 H    1.510652757857   -2.654547818297   -4.747814380082
