17

 N   -0.838212044469    0.777386083386    3.345662937496
 C   -1.253882044469    1.503166083386    4.581842937496
 H   -1.507982044469    0.823026083386    2.564762937496
 H   -0.675482044469   -0.223273916614    3.496812937496
 H    0.025147955531    1.125456083386    2.906762937496
 H   -0.462602044469    1.402266083386    5.331672937496
 H   -2.185532044469    1.062916083386    4.951492937496
 H   -1.406022044469    2.557516083386    4.330202937496
CL   -0.154692044469    0.143466083386    0.617442937496
 N    1.006992758913   -0.933920431361   -4.019336841125
 C    1.422661817065   -1.659694718144   -5.255519097242
 H    1.676761542247   -0.979555872030   -3.238430173574
 H    0.844256198675    0.066737706931   -4.170484458810
 H    0.143631363259   -1.281996232992   -3.580427709624
 H    0.631382061173   -1.558798813451   -6.005345485636
 H    2.354309084100   -1.219437916917   -5.625169055579
 H    1.574805026540   -2.714044842764   -5.003873460236
