17

 N   -0.861221402348    0.798725754715    3.437503103623
 C   -1.276891402348    1.524505754715    4.673683103623
 H   -1.530991402348    0.844365754715    2.656603103623
 H   -0.698491402348   -0.201934245285    3.588653103623
 H    0.002138597652    1.146795754715    2.998603103623
 H   -0.485611402348    1.423605754715    5.423513103623
 H   -2.208541402348    1.084255754715    5.043333103623
 H   -1.429031402348    2.578855754715    4.422043103623
CL   -0.177701402348    0.164805754715    0.709283103623
 N    1.055106960425   -0.978543199711   -4.211381151241
 C    1.470776018578   -1.704317486495   -5.447563407358
 H    1.724875743759   -1.024178640380   -3.430474483690
 H    0.892370400187    0.022114938581   -4.362528768925
 H    0.191745564772   -1.326619001342   -3.772472019740
 H    0.679496262685   -1.603421581801   -6.197389795751
 H    2.402423285613   -1.264060685267   -5.817213365695
 H    1.622919228052   -2.758667611115   -5.195917770352
