17

 N   -0.884230760226    0.820065426043    3.529343269749
 C   -1.299900760226    1.545845426043    4.765523269749
 H   -1.554000760226    0.865705426043    2.748443269749
 H   -0.721500760226   -0.180594573957    3.680493269749
 H   -0.020870760226    1.168135426043    3.090443269749
 H   -0.508620760226    1.444945426043    5.515353269749
 H   -2.231550760226    1.105595426043    5.135173269749
 H   -1.452040760226    2.600195426043    4.513883269749
CL   -0.200710760226    0.186145426043    0.801123269749
 N    1.103221161938   -1.023165968061   -4.403425461356
 C    1.518890220090   -1.748940254845   -5.639607717473
 H    1.772989945272   -1.068801408731   -3.622518793805
 H    0.940484601700   -0.022507829769   -4.554573079041
 H    0.239859766284   -1.371241769692   -3.964516329855
 H    0.727610464198   -1.648044350152   -6.389434105867
 H    2.450537487125   -1.308683453618   -6.009257675811
 H    1.671033429565   -2.803290379465   -5.387962080467
