17

 N   -0.899570332145    0.834291873595    3.590570047167
 C   -1.315240332145    1.560071873595    4.826750047167
 H   -1.569340332145    0.879931873595    2.809670047167
 H   -0.736840332145   -0.166368126405    3.741720047167
 H   -0.036210332145    1.182361873595    3.151670047167
 H   -0.523960332145    1.459171873595    5.576580047167
 H   -2.246890332145    1.119821873595    5.196400047167
 H   -1.467380332145    2.614421873595    4.575110047167
CL   -0.216050332145    0.200371873595    0.862350047167
 N    1.135297296279   -1.052914480295   -4.531455001433
 C    1.550966354432   -1.778688767078   -5.767637257550
 H    1.805066079613   -1.098549920964   -3.750548333882
 H    0.972560736041   -0.052256342003   -4.682602619118
 H    0.271935900626   -1.400990281926   -4.092545869933
 H    0.759686598539   -1.677792862385   -6.517463645944
 H    2.482613621467   -1.338431965851   -6.137287215888
 H    1.703109563906   -2.833038891698   -5.515991620544
