17

 N   -0.907240118104    0.841405097371    3.621183435876
 C   -1.322910118104    1.567185097371    4.857363435876
 H   -1.577010118104    0.887045097371    2.840283435876
 H   -0.744510118104   -0.159254902629    3.772333435876
 H   -0.043880118104    1.189475097371    3.182283435876
 H   -0.531630118104    1.466285097371    5.607193435876
 H   -2.254560118104    1.126935097371    5.227013435876
 H   -1.475050118104    2.621535097371    4.605723435876
CL   -0.223720118104    0.207485097371    0.892963435876
 N    1.151335363450   -1.067788736412   -4.595469771472
 C    1.567004421602   -1.793563023195   -5.831652027589
 H    1.821104146784   -1.113424177081   -3.814563103921
 H    0.988598803212   -0.067130598119   -4.746617389157
 H    0.287973967797   -1.415864538042   -4.156560639971
 H    0.775724665710   -1.692667118502   -6.581478415983
 H    2.498651688638   -1.353306221968   -6.201301985926
 H    1.719147631077   -2.847913147815   -5.580006390583
