17

 N   -0.953258833861    0.884084440027    3.804863768129
 C   -1.368928833861    1.609864440027    5.041043768129
 H   -1.623028833861    0.929724440027    3.023963768129
 H   -0.790528833861   -0.116575559973    3.956013768129
 H   -0.089898833861    1.232154440027    3.365963768129
 H   -0.577648833861    1.508964440027    5.790873768129
 H   -2.300578833861    1.169614440027    5.410693768129
 H   -1.521068833861    2.664214440027    4.789403768129
CL   -0.269738833861    0.250164440027    1.076643768129
 N    1.247563766475   -1.157034273112   -4.979558391703
 C    1.663232824627   -1.882808559895   -6.215740647820
 H    1.917332549809   -1.202669713781   -4.198651724152
 H    1.084827206237   -0.156376134820   -5.130706009388
 H    0.384202370822   -1.505110074743   -4.540649260202
 H    0.871953068735   -1.781912655202   -6.965567036214
 H    2.594880091663   -1.442551758668   -6.585390606157
 H    1.815376034102   -2.937158684516   -5.964095010814
