17

 N   -0.968598405780    0.898310887579    3.866090545547
 C   -1.384268405780    1.624090887579    5.102270545547
 H   -1.638368405780    0.943950887579    3.085190545547
 H   -0.805868405780   -0.102349112421    4.017240545547
 H   -0.105238405780    1.246380887579    3.427190545547
 H   -0.592988405780    1.523190887579    5.852100545547
 H   -2.315918405780    1.183840887579    5.471920545547
 H   -1.536408405780    2.678440887579    4.850630545547
CL   -0.285078405780    0.264390887579    1.137870545547
 N    1.279639900816   -1.186782785345   -5.107587931780
 C    1.695308958969   -1.912557072129   -6.343770187897
 H    1.949408684151   -1.232418226015   -4.326681264229
 H    1.116903340579   -0.186124647053   -5.258735549465
 H    0.416278505163   -1.534858586976   -4.668678800279
 H    0.904029203077   -1.811661167436   -7.093596576291
 H    2.626956226004   -1.472300270902   -6.713420146234
 H    1.847452168444   -2.966907196749   -6.092124550891
