17

 N   -0.976268191739    0.905424111355    3.896703934256
 C   -1.391938191739    1.631204111355    5.132883934256
 H   -1.646038191739    0.951064111355    3.115803934256
 H   -0.813538191739   -0.095235888645    4.047853934256
 H   -0.112908191739    1.253494111355    3.457803934256
 H   -0.600658191739    1.530304111355    5.882713934256
 H   -2.323588191739    1.190954111355    5.502533934256
 H   -1.544078191739    2.685554111355    4.881243934256
CL   -0.292748191739    0.271504111355    1.168483934256
 N    1.295677967987   -1.201657041462   -5.171602701819
 C    1.711347026140   -1.927431328246   -6.407784957936
 H    1.965446751321   -1.247292482132   -4.390696034267
 H    1.132941407749   -0.200998903170   -5.322750319503
 H    0.432316572334   -1.549732843093   -4.732693570318
 H    0.920067270247   -1.826535423552   -7.157611346329
 H    2.642994293175   -1.487174527018   -6.777434916273
 H    1.863490235614   -2.981781452866   -6.156139320930
