17

 N   -0.999277549618    0.926763782684    3.988544100382
 C   -1.414947549618    1.652543782684    5.224724100382
 H   -1.669047549618    0.972403782684    3.207644100382
 H   -0.836547549618   -0.073896217316    4.139694100382
 H   -0.135917549618    1.274833782684    3.549644100382
 H   -0.623667549618    1.551643782684    5.974554100382
 H   -2.346597549618    1.212293782684    5.594374100382
 H   -1.567087549618    2.706893782684    4.973084100382
CL   -0.315757549618    0.292843782684    1.260324100382
 N    1.343792169500   -1.246279809812   -5.363647011934
 C    1.759461227652   -1.972054096596   -6.599829268051
 H    2.013560952834   -1.291915250482   -4.582740344383
 H    1.181055609262   -0.245621671520   -5.514794629619
 H    0.480430773846   -1.594355611443   -4.924737880433
 H    0.968181471760   -1.871158191903   -7.349655656445
 H    2.691108494687   -1.531797295369   -6.969479226388
 H    1.911604437127   -3.026404221216   -6.348183631045
