17

 N   -1.006947335577    0.933877006460    4.019157489091
 C   -1.422617335577    1.659657006460    5.255337489091
 H   -1.676717335577    0.979517006460    3.238257489091
 H   -0.844217335577   -0.066782993540    4.170307489091
 H   -0.143587335577    1.281947006460    3.580257489091
 H   -0.631337335577    1.558757006460    6.005167489091
 H   -2.354267335577    1.219407006460    5.624987489091
 H   -1.574757335577    2.714007006460    5.003697489091
CL   -0.323427335577    0.299957006460    1.290937489091
 N    1.359830236670   -1.261154065929   -5.427661781973
 C    1.775499294823   -1.986928352713   -6.663844038090
 H    2.029599020005   -1.306789506599   -4.646755114422
 H    1.197093676433   -0.260495927637   -5.578809399657
 H    0.496468841017   -1.609229867560   -4.988752650472
 H    0.984219538931   -1.886032448019   -7.413670426483
 H    2.707146561858   -1.546671551485   -7.033493996427
 H    1.927642504298   -3.041278477333   -6.412198401084
