17

 N   -1.014617121537    0.940990230236    4.049770877800
 C   -1.430287121537    1.666770230236    5.285950877800
 H   -1.684387121537    0.986630230236    3.268870877800
 H   -0.851887121537   -0.059669769764    4.200920877800
 H   -0.151257121537    1.289060230236    3.610870877800
 H   -0.639007121537    1.565870230236    6.035780877800
 H   -2.361937121537    1.226520230236    5.655600877800
 H   -1.582427121537    2.721120230236    5.034310877800
CL   -0.331097121537    0.307070230236    1.321550877800
 N    1.375868303841   -1.276028322046   -5.491676552011
 C    1.791537361994   -2.001802608829   -6.727858808128
 H    2.045637087175   -1.321663762715   -4.710769884460
 H    1.213131743604   -0.275370183754   -5.642824169696
 H    0.512506908188   -1.624104123677   -5.052767420510
 H    1.000257606101   -1.900906704136   -7.477685196522
 H    2.723184629029   -1.561545807602   -7.097508766465
 H    1.943680571469   -3.056152733450   -6.476213171122
