17

 N   -1.022286907496    0.948103454012    4.080384266509
 C   -1.437956907496    1.673883454012    5.316564266509
 H   -1.692056907496    0.993743454012    3.299484266509
 H   -0.859556907496   -0.052556545988    4.231534266509
 H   -0.158926907496    1.296173454012    3.641484266509
 H   -0.646676907496    1.572983454012    6.066394266509
 H   -2.369606907496    1.233633454012    5.686214266509
 H   -1.590096907496    2.728233454012    5.064924266509
CL   -0.338766907496    0.314183454012    1.352164266509
 N    1.391906371012   -1.290902578163   -5.555691322050
 C    1.807575429164   -2.016676864946   -6.791873578167
 H    2.061675154346   -1.336538018832   -4.774784654499
 H    1.229169810774   -0.290244439871   -5.706838939734
 H    0.528544975359   -1.638978379793   -5.116782190549
 H    1.016295673272   -1.915780960253   -7.541699966560
 H    2.739222696200   -1.576420063719   -7.161523536504
 H    1.959718638639   -3.071026989566   -6.540227941161
