17

 N   -1.037626479415    0.962329901564    4.141611043926
 C   -1.453296479415    1.688109901564    5.377791043926
 H   -1.707396479415    1.007969901564    3.360711043926
 H   -0.874896479415   -0.038330098436    4.292761043926
 H   -0.174266479415    1.310399901564    3.702711043926
 H   -0.662016479415    1.587209901564    6.127621043926
 H   -2.384946479415    1.247859901564    5.747441043926
 H   -1.605436479415    2.742459901564    5.126151043926
CL   -0.354106479415    0.328409901564    1.413391043926
 N    1.423982505354   -1.320651090396   -5.683720862127
 C    1.839651563506   -2.046425377180   -6.919903118244
 H    2.093751288688   -1.366286531066   -4.902814194576
 H    1.261245945116   -0.319992952104   -5.834868479811
 H    0.560621109700   -1.668726892027   -5.244811730626
 H    1.048371807614   -1.945529472486   -7.669729506637
 H    2.771298830541   -1.606168575952   -7.289553076581
 H    1.991794772981   -3.100775501800   -6.668257481238
