17

 N   -1.060635837293    0.983669572892    4.233451210053
 C   -1.476305837293    1.709449572892    5.469631210053
 H   -1.730405837293    1.029309572892    3.452551210053
 H   -0.897905837293   -0.016990427108    4.384601210053
 H   -0.197275837293    1.331739572892    3.794551210053
 H   -0.685025837293    1.608549572892    6.219461210053
 H   -2.407955837293    1.269199572892    5.839281210053
 H   -1.628445837293    2.763799572892    5.217991210053
CL   -0.377115837293    0.349749572892    1.505231210053
 N    1.472096706866   -1.365273858746   -5.875765172242
 C    1.887765765018   -2.091048145530   -7.111947428359
 H    2.141865490200   -1.410909299416   -5.094858504691
 H    1.309360146628   -0.364615720454   -6.026912789927
 H    0.608735311213   -1.713349660377   -5.436856040742
 H    1.096486009126   -1.990152240837   -7.861773816753
 H    2.819413032054   -1.650791344303   -7.481597386697
 H    2.039908974493   -3.145398270150   -6.860301791353
