17

 N   -1.091314981131    1.012122467996    4.355904764888
 C   -1.506984981131    1.737902467996    5.592084764888
 H   -1.761084981131    1.057762467996    3.575004764888
 H   -0.928584981131    0.011462467996    4.507054764888
 H   -0.227954981131    1.360192467996    3.917004764888
 H   -0.715704981131    1.637002467996    6.341914764888
 H   -2.438634981131    1.297652467996    5.961734764888
 H   -1.659124981131    2.792252467996    5.340444764888
CL   -0.407794981131    0.378202467996    1.627684764888
 N    1.536248975549   -1.424770883213   -6.131824252396
 C    1.951918033702   -2.150545169997   -7.368006508514
 H    2.206017758884   -1.470406323883   -5.350917584845
 H    1.373512415312   -0.424112744921   -6.282971870081
 H    0.672887579896   -1.772846684844   -5.692915120896
 H    1.160638277810   -2.049649265304   -8.117832896907
 H    2.883565300737   -1.710288368770   -7.737656466851
 H    2.104061243177   -3.204895294617   -7.116360871507
