17

 N   -1.098984767091    1.019235691772    4.386518153597
 C   -1.514654767091    1.745015691772    5.622698153597
 H   -1.768754767091    1.064875691772    3.605618153597
 H   -0.936254767091    0.018575691772    4.537668153597
 H   -0.235624767091    1.367305691772    3.947618153597
 H   -0.723374767091    1.644115691772    6.372528153597
 H   -2.446304767091    1.304765691772    5.992348153597
 H   -1.666794767091    2.799365691772    5.371058153597
CL   -0.415464767091    0.385315691772    1.658298153597
 N    1.552287042720   -1.439645139330   -6.195839022435
 C    1.967956100872   -2.165419426114   -7.432021278552
 H    2.222055826054   -1.485280580000   -5.414932354884
 H    1.389550482482   -0.438987001038   -6.346986640120
 H    0.688925647067   -1.787720940961   -5.756929890934
 H    1.176676344980   -2.064523521420   -8.181847666946
 H    2.899603367908   -1.725162624886   -7.801671236889
 H    2.120099310347   -3.219769550734   -7.180375641546
