17

 N   -1.106654553050    1.026348915548    4.417131542306
 C   -1.522324553050    1.752128915548    5.653311542306
 H   -1.776424553050    1.071988915548    3.636231542306
 H   -0.943924553050    0.025688915548    4.568281542306
 H   -0.243294553050    1.374418915548    3.978231542306
 H   -0.731044553050    1.651228915548    6.403141542306
 H   -2.453974553050    1.311878915548    6.022961542306
 H   -1.674464553050    2.806478915548    5.401671542306
CL   -0.423134553050    0.392428915548    1.688911542306
 N    1.568325109891   -1.454519395447   -6.259853792474
 C    1.983994168043   -2.180293682230   -7.496036048591
 H    2.238093893225   -1.500154836116   -5.478947124922
 H    1.405588549653   -0.453861257155   -6.411001410158
 H    0.704963714238   -1.802595197078   -5.820944660973
 H    1.192714412151   -2.079397777537   -8.245862436984
 H    2.915641435079   -1.740036881003   -7.865686006928
 H    2.136137377518   -3.234643806850   -7.244390411585
