17

 N   -1.114324339009    1.033462139324    4.447744931015
 C   -1.529994339009    1.759242139324    5.683924931015
 H   -1.784094339009    1.079102139324    3.666844931015
 H   -0.951594339009    0.032802139324    4.598894931015
 H   -0.250964339009    1.381532139324    4.008844931015
 H   -0.738714339009    1.658342139324    6.433754931015
 H   -2.461644339009    1.318992139324    6.053574931015
 H   -1.682134339009    2.813592139324    5.432284931015
CL   -0.430804339009    0.399542139324    1.719524931015
 N    1.584363177062   -1.469393651564   -6.323868562512
 C    2.000032235214   -2.195167938347   -7.560050818629
 H    2.254131960396   -1.515029092233   -5.542961894961
 H    1.421626616824   -0.468735513272   -6.475016180197
 H    0.721001781408   -1.817469453194   -5.884959431011
 H    1.208752479322   -2.094272033654   -8.309877207023
 H    2.931679502249   -1.754911137120   -7.929700776966
 H    2.152175444689   -3.249518062967   -7.308405181623
