17

 N   -1.129663910928    1.047688586877    4.508971708432
 C   -1.545333910928    1.773468586877    5.745151708432
 H   -1.799433910928    1.093328586877    3.728071708432
 H   -0.966933910928    0.047028586877    4.660121708432
 H   -0.266303910928    1.395758586877    4.070071708432
 H   -0.754053910928    1.672568586877    6.494981708432
 H   -2.476983910928    1.333218586877    6.114801708432
 H   -1.697473910928    2.827818586877    5.493511708432
CL   -0.446143910928    0.413768586877    1.780751708432
 N    1.616439311403   -1.499142163797   -6.451898102589
 C    2.032108369556   -2.224916450581   -7.688080358706
 H    2.286208094738   -1.544777604467   -5.670991435038
 H    1.453702751166   -0.498484025505   -6.603045720274
 H    0.753077915750   -1.847217965428   -6.012988971088
 H    1.240828613664   -2.124020545887   -8.437906747100
 H    2.963755636591   -1.784659649353   -8.057730317043
 H    2.184251579031   -3.279266575201   -7.436434721700
