17

 N   -1.137333696888    1.054801810653    4.539585097141
 C   -1.553003696888    1.780581810653    5.775765097141
 H   -1.807103696888    1.100441810653    3.758685097141
 H   -0.974603696888    0.054141810653    4.690735097141
 H   -0.273973696888    1.402871810653    4.100685097141
 H   -0.761723696888    1.679681810653    6.525595097141
 H   -2.484653696888    1.340331810653    6.145415097141
 H   -1.705143696888    2.834931810653    5.524125097141
CL   -0.453813696888    0.420881810653    1.811365097141
 N    1.632477378574   -1.514016419914   -6.515912872628
 C    2.048146436727   -2.239790706697   -7.752095128745
 H    2.302246161908   -1.559651860583   -5.735006205076
 H    1.469740818336   -0.513358281622   -6.667060490312
 H    0.769115982921   -1.862092221545   -6.077003741127
 H    1.256866680834   -2.138894802004   -8.501921517138
 H    2.979793703762   -1.799533905470   -8.121745087082
 H    2.200289646201   -3.294140831317   -7.500449491739
