17

 N   -1.160343054766    1.076141481981    4.631425263268
 C   -1.576013054766    1.801921481981    5.867605263268
 H   -1.830113054766    1.121781481981    3.850525263268
 H   -0.997613054766    0.075481481981    4.782575263268
 H   -0.296983054766    1.424211481981    4.192525263268
 H   -0.784733054766    1.701021481981    6.617435263268
 H   -2.507663054766    1.361671481981    6.237255263268
 H   -1.728153054766    2.856271481981    5.615965263268
CL   -0.476823054766    0.442221481981    1.903205263268
 N    1.680591580087   -1.558639188264   -6.707957182743
 C    2.096260638239   -2.284413475048   -7.944139438860
 H    2.350360363421   -1.604274628934   -5.927050515192
 H    1.517855019849   -0.557981049972   -6.859104800428
 H    0.817230184433   -1.906714989895   -6.269048051242
 H    1.304980882347   -2.183517570354   -8.693965827254
 H    3.027907905274   -1.844156673820   -8.313789397198
 H    2.248403847714   -3.338763599668   -7.692493801854
