17

 N   -1.175682626685    1.090367929533    4.692652040686
 C   -1.591352626685    1.816147929533    5.928832040686
 H   -1.845452626685    1.136007929533    3.911752040686
 H   -1.012952626685    0.089707929533    4.843802040686
 H   -0.312322626685    1.438437929533    4.253752040686
 H   -0.800072626685    1.715247929533    6.678662040686
 H   -2.523002626685    1.375897929533    6.298482040686
 H   -1.743492626685    2.870497929533    5.677192040686
CL   -0.492162626685    0.456447929533    1.964432040686
 N    1.712667714428   -1.588387700498   -6.835986722820
 C    2.128336772581   -2.314161987281   -8.072168978937
 H    2.382436497762   -1.634023141167   -6.055080055269
 H    1.549931154190   -0.587729562205   -6.987134340505
 H    0.849306318775   -1.936463502128   -6.397077591319
 H    1.337057016688   -2.213266082588   -8.821995367331
 H    3.059984039616   -1.873905186054   -8.441818937275
 H    2.280479982055   -3.368512111901   -7.820523341931
