17

 N   -1.191022198604    1.104594377085    4.753878818103
 C   -1.606692198604    1.830374377085    5.990058818103
 H   -1.860792198604    1.150234377085    3.972978818103
 H   -1.028292198604    0.103934377085    4.905028818103
 H   -0.327662198604    1.452664377085    4.314978818103
 H   -0.815412198604    1.729474377085    6.739888818103
 H   -2.538342198604    1.390124377085    6.359708818103
 H   -1.758832198604    2.884724377085    5.738418818103
CL   -0.507502198604    0.470674377085    2.025658818103
 N    1.744743848770   -1.618136212731   -6.964016262897
 C    2.160412906922   -2.343910499515   -8.200198519014
 H    2.414512632104   -1.663771653400   -6.183109595346
 H    1.582007288532   -0.617478074439   -7.115163880582
 H    0.881382453116   -1.966212014362   -6.525107131397
 H    1.369133151030   -2.243014594821   -8.950024907408
 H    3.092060173957   -1.903653698287   -8.569848477352
 H    2.312556116397   -3.398260624135   -7.948552882008
