8

 C    1.017676511555   -1.908470434289    0.000000000000
 H    2.053176511555   -2.284558434289    0.000000000000
 H    0.484476511555   -2.289173434289    0.888337000000
 H    0.484476511555   -2.289173434289   -0.888337000000
 C    0.975910511555   -0.352386434289    0.000000000000
 O   -0.191285488445    0.153836565711    0.000000000000
 O    2.099981511555    0.243031565711    0.000000000000
 K   -1.475687432801    0.710892797464    0.000000000000
