8

 C    1.090645611945   -1.940117764221    0.000000000000
 H    2.126145611945   -2.316205764221    0.000000000000
 H    0.557445611945   -2.320820764221    0.888337000000
 H    0.557445611945   -2.320820764221   -0.888337000000
 C    1.048879611945   -0.384033764221    0.000000000000
 O   -0.118316388055    0.122189235779    0.000000000000
 O    2.172950611945    0.211384235779    0.000000000000
 K   -1.586204324462    0.758824929211    0.000000000000
