8

 C    1.127130162140   -1.955941429187    0.000000000000
 H    2.162630162140   -2.332029429187    0.000000000000
 H    0.593930162140   -2.336644429187    0.888337000000
 H    0.593930162140   -2.336644429187   -0.888337000000
 C    1.085364162140   -0.399857429187    0.000000000000
 O   -0.081831837860    0.106365570813    0.000000000000
 O    2.209435162140    0.195560570813    0.000000000000
 K   -1.641462770292    0.782790995085    0.000000000000
