8

 C    1.200099262530   -1.987588759118    0.000000000000
 H    2.235599262530   -2.363676759118    0.000000000000
 H    0.666899262530   -2.368291759118    0.888337000000
 H    0.666899262530   -2.368291759118   -0.888337000000
 C    1.158333262530   -0.431504759118    0.000000000000
 O   -0.008862737470    0.074718240882    0.000000000000
 O    2.282404262530    0.163913240882    0.000000000000
 K   -1.751979661952    0.830723126833    0.000000000000
