8

 C    1.455491113897   -2.098354413879    0.000000000000
 H    2.490991113897   -2.474442413879    0.000000000000
 H    0.922291113897   -2.479057413879    0.888337000000
 H    0.922291113897   -2.479057413879   -0.888337000000
 C    1.413725113897   -0.542270413879    0.000000000000
 O    0.246529113897   -0.036047413879    0.000000000000
 O    2.537796113897    0.053147586121    0.000000000000
 K   -2.138788782764    0.998485587948    0.000000000000
