8

 C    1.491975664092   -2.114178078845    0.000000000000
 H    2.527475664092   -2.490266078845    0.000000000000
 H    0.958775664092   -2.494881078845    0.888337000000
 H    0.958775664092   -2.494881078845   -0.888337000000
 C    1.450209664092   -0.558094078845    0.000000000000
 O    0.283013664092   -0.051871078845    0.000000000000
 O    2.574280664092    0.037323921155    0.000000000000
 K   -2.194047228594    1.022451653822    0.000000000000
