8

 C    1.564944764482   -2.145825408777    0.000000000000
 H    2.600444764482   -2.521913408777    0.000000000000
 H    1.031744764482   -2.526528408777    0.888337000000
 H    1.031744764482   -2.526528408777   -0.888337000000
 C    1.523178764482   -0.589741408777    0.000000000000
 O    0.355982764482   -0.083518408777    0.000000000000
 O    2.647249764482    0.005676591223    0.000000000000
 K   -2.304564120255    1.070383785570    0.000000000000
