8

 C    1.601429314677   -2.161649073743    0.000000000000
 H    2.636929314677   -2.537737073743    0.000000000000
 H    1.068229314677   -2.542352073743    0.888337000000
 H    1.068229314677   -2.542352073743   -0.888337000000
 C    1.559663314677   -0.605565073743    0.000000000000
 O    0.392467314677   -0.099342073743    0.000000000000
 O    2.683734314677   -0.010147073743    0.000000000000
 K   -2.359822566085    1.094349851443    0.000000000000
