8

 C    1.637913864873   -2.177472738708    0.000000000000
 H    2.673413864873   -2.553560738708    0.000000000000
 H    1.104713864873   -2.558175738708    0.888337000000
 H    1.104713864873   -2.558175738708   -0.888337000000
 C    1.596147864873   -0.621388738708    0.000000000000
 O    0.428951864873   -0.115165738708    0.000000000000
 O    2.720218864873   -0.025970738708    0.000000000000
 K   -2.415081011915    1.118315917317    0.000000000000
