8

 C    1.747367515458   -2.224943733606    0.000000000000
 H    2.782867515458   -2.601031733606    0.000000000000
 H    1.214167515458   -2.605646733606    0.888337000000
 H    1.214167515458   -2.605646733606   -0.888337000000
 C    1.705601515458   -0.668859733606    0.000000000000
 O    0.538405515458   -0.162636733606    0.000000000000
 O    2.829672515458   -0.073441733606    0.000000000000
 K   -2.580856349406    1.190214114938    0.000000000000
