8

 C    1.929790266434   -2.304062058435    0.000000000000
 H    2.965290266434   -2.680150058435    0.000000000000
 H    1.396590266434   -2.684765058435    0.888337000000
 H    1.396590266434   -2.684765058435   -0.888337000000
 C    1.888024266434   -0.747978058435    0.000000000000
 O    0.720828266434   -0.241755058435    0.000000000000
 O    3.012095266434   -0.152560058435    0.000000000000
 K   -2.857148578557    1.310044444307    0.000000000000
