8

 C    2.039243917020   -2.351533053332    0.000000000000
 H    3.074743917020   -2.727621053332    0.000000000000
 H    1.506043917020   -2.732236053332    0.888337000000
 H    1.506043917020   -2.732236053332   -0.888337000000
 C    1.997477917020   -0.795449053332    0.000000000000
 O    0.830281917020   -0.289226053332    0.000000000000
 O    3.121548917020   -0.200031053332    0.000000000000
 K   -3.022923916048    1.381942641928    0.000000000000
