8

 C    2.258151218191   -2.446475043127    0.000000000000
 H    3.293651218191   -2.822563043127    0.000000000000
 H    1.724951218191   -2.827178043127    0.888337000000
 H    1.724951218191   -2.827178043127   -0.888337000000
 C    2.216385218191   -0.890391043127    0.000000000000
 O    1.049189218191   -0.384168043127    0.000000000000
 O    3.340456218191   -0.294973043127    0.000000000000
 K   -3.354474591029    1.525739037170    0.000000000000
