8

 C    2.404089418971   -2.509769702991    0.000000000000
 H    3.439589418971   -2.885857702991    0.000000000000
 H    1.870889418971   -2.890472702991    0.888337000000
 H    1.870889418971   -2.890472702991   -0.888337000000
 C    2.362323418971   -0.953685702991    0.000000000000
 O    1.195127418971   -0.447462702991    0.000000000000
 O    3.486394418971   -0.358267702991    0.000000000000
 K   -3.575508374350    1.621603300665    0.000000000000
