8

 C    2.513543069557   -2.557240697888    0.000000000000
 H    3.549043069557   -2.933328697888    0.000000000000
 H    1.980343069557   -2.937943697888    0.888337000000
 H    1.980343069557   -2.937943697888   -0.888337000000
 C    2.471777069557   -1.001156697888    0.000000000000
 O    1.304581069557   -0.494933697888    0.000000000000
 O    3.595848069557   -0.405738697888    0.000000000000
 K   -3.741283711841    1.693501498286    0.000000000000
