8

 C    2.586512169947   -2.588888027820    0.000000000000
 H    3.622012169947   -2.964976027820    0.000000000000
 H    2.053312169947   -2.969591027820    0.888337000000
 H    2.053312169947   -2.969591027820   -0.888337000000
 C    2.544746169947   -1.032804027820    0.000000000000
 O    1.377550169947   -0.526581027820    0.000000000000
 O    3.668817169947   -0.437386027820    0.000000000000
 K   -3.851800603501    1.741433630033    0.000000000000
