8

 C    2.622996720142   -2.604711692786    0.000000000000
 H    3.658496720142   -2.980799692786    0.000000000000
 H    2.089796720142   -2.985414692786    0.888337000000
 H    2.089796720142   -2.985414692786   -0.888337000000
 C    2.581230720142   -1.048627692786    0.000000000000
 O    1.414034720142   -0.542404692786    0.000000000000
 O    3.705301720142   -0.453209692786    0.000000000000
 K   -3.907059049331    1.765399695907    0.000000000000
