8

 C    2.695965820533   -2.636359022717    0.000000000000
 H    3.731465820533   -3.012447022717    0.000000000000
 H    2.162765820533   -3.017062022717    0.888337000000
 H    2.162765820533   -3.017062022717   -0.888337000000
 C    2.654199820533   -1.080275022717    0.000000000000
 O    1.487003820533   -0.574052022717    0.000000000000
 O    3.778270820533   -0.484857022717    0.000000000000
 K   -4.017575940992    1.813331827654    0.000000000000
