8

 C    3.097295872680   -2.810419337341    0.000000000000
 H    4.132795872680   -3.186507337341    0.000000000000
 H    2.564095872680   -3.191122337341    0.888337000000
 H    2.564095872680   -3.191122337341   -0.888337000000
 C    3.055529872680   -1.254335337341    0.000000000000
 O    1.888333872680   -0.748112337341    0.000000000000
 O    4.179600872680   -0.658917337341    0.000000000000
 K   -4.625418845124    2.076958552265    0.000000000000
