8

 C    3.170264973070   -2.842066667273    0.000000000000
 H    4.205764973070   -3.218154667273    0.000000000000
 H    2.637064973070   -3.222769667273    0.888337000000
 H    2.637064973070   -3.222769667273   -0.888337000000
 C    3.128498973070   -1.285982667273    0.000000000000
 O    1.961302973070   -0.779759667273    0.000000000000
 O    4.252569973070   -0.690564667273    0.000000000000
 K   -4.735935736785    2.124890684012    0.000000000000
