8

 C    3.206749523265   -2.857890332239    0.000000000000
 H    4.242249523265   -3.233978332239    0.000000000000
 H    2.673549523265   -3.238593332239    0.888337000000
 H    2.673549523265   -3.238593332239   -0.888337000000
 C    3.164983523265   -1.301806332239    0.000000000000
 O    1.997787523265   -0.795583332239    0.000000000000
 O    4.289054523265   -0.706388332239    0.000000000000
 K   -4.791194182615    2.148856749886    0.000000000000
