8

 C    3.279718623656   -2.889537662171    0.000000000000
 H    4.315218623656   -3.265625662171    0.000000000000
 H    2.746518623656   -3.270240662171    0.888337000000
 H    2.746518623656   -3.270240662171   -0.888337000000
 C    3.237952623656   -1.333453662171    0.000000000000
 O    2.070756623656   -0.827230662171    0.000000000000
 O    4.362023623656   -0.738035662171    0.000000000000
 K   -4.901711074276    2.196788881633    0.000000000000
