8

 C    3.462141374631   -2.968655987000    0.000000000000
 H    4.497641374631   -3.344743987000    0.000000000000
 H    2.928941374631   -3.349358987000    0.888337000000
 H    2.928941374631   -3.349358987000   -0.888337000000
 C    3.420375374631   -1.412571987000    0.000000000000
 O    2.253179374631   -0.906348987000    0.000000000000
 O    4.544446374631   -0.817153987000    0.000000000000
 K   -5.178003303427    2.316619211002    0.000000000000
