8

 C    3.571595025217   -3.016126981897    0.000000000000
 H    4.607095025217   -3.392214981897    0.000000000000
 H    3.038395025217   -3.396829981897    0.888337000000
 H    3.038395025217   -3.396829981897   -0.888337000000
 C    3.529829025217   -1.460042981897    0.000000000000
 O    2.362633025217   -0.953819981897    0.000000000000
 O    4.653900025217   -0.864624981897    0.000000000000
 K   -5.343778640917    2.388517408623    0.000000000000
