8

 C    3.608079575412   -3.031950646863    0.000000000000
 H    4.643579575412   -3.408038646863    0.000000000000
 H    3.074879575412   -3.412653646863    0.888337000000
 H    3.074879575412   -3.412653646863   -0.888337000000
 C    3.566313575412   -1.475866646863    0.000000000000
 O    2.399117575412   -0.969643646863    0.000000000000
 O    4.690384575412   -0.880448646863    0.000000000000
 K   -5.399037086748    2.412483474497    0.000000000000
