8

 C    3.754017776193   -3.095245306726    0.000000000000
 H    4.789517776193   -3.471333306726    0.000000000000
 H    3.220817776193   -3.475948306726    0.888337000000
 H    3.220817776193   -3.475948306726   -0.888337000000
 C    3.712251776193   -1.539161306726    0.000000000000
 O    2.545055776193   -1.032938306726    0.000000000000
 O    4.836322776193   -0.943743306726    0.000000000000
 K   -5.620070870069    2.508347737991    0.000000000000
