8

 C    3.826986876583   -3.126892636658    0.000000000000
 H    4.862486876583   -3.502980636658    0.000000000000
 H    3.293786876583   -3.507595636658    0.888337000000
 H    3.293786876583   -3.507595636658   -0.888337000000
 C    3.785220876583   -1.570808636658    0.000000000000
 O    2.618024876583   -1.064585636658    0.000000000000
 O    4.909291876583   -0.975390636658    0.000000000000
 K   -5.730587761729    2.556279869739    0.000000000000
