8

 C    4.009409627559   -3.206010961487    0.000000000000
 H    5.044909627559   -3.582098961487    0.000000000000
 H    3.476209627559   -3.586713961487    0.888337000000
 H    3.476209627559   -3.586713961487   -0.888337000000
 C    3.967643627559   -1.649926961487    0.000000000000
 O    2.800447627559   -1.143703961487    0.000000000000
 O    5.091714627559   -1.054508961487    0.000000000000
 K   -6.006879990880    2.676110199107    0.000000000000
