8

 C    4.082378727949   -3.237658291419    0.000000000000
 H    5.117878727949   -3.613746291419    0.000000000000
 H    3.549178727949   -3.618361291419    0.888337000000
 H    3.549178727949   -3.618361291419   -0.888337000000
 C    4.040612727949   -1.681574291419    0.000000000000
 O    2.873416727949   -1.175351291419    0.000000000000
 O    5.164683727949   -1.086156291419    0.000000000000
 K   -6.117396882541    2.724042330855    0.000000000000
