8

 C    4.118863278145   -3.253481956385    0.000000000000
 H    5.154363278145   -3.629569956385    0.000000000000
 H    3.585663278145   -3.634184956385    0.888337000000
 H    3.585663278145   -3.634184956385   -0.888337000000
 C    4.077097278145   -1.697397956385    0.000000000000
 O    2.909901278145   -1.191174956385    0.000000000000
 O    5.201168278145   -1.101979956385    0.000000000000
 K   -6.172655328371    2.748008396728    0.000000000000
