20

 C    1.068112295660   -2.288413626964    0.000000000000
 C   -0.408597704340   -1.946433626964    0.000000000000
 N   -1.285487704340   -2.952403626964    0.000000000000
 H   -2.280477704340   -2.747693626964    0.000000000000
 H   -0.992807704340   -3.923053626964    0.000000000000
 O   -0.778397704340   -0.738013626964    0.000000000000
 H    1.665172295660   -1.365013626964    0.000000000000
 H    1.337662295660   -2.888393626964    0.883300000000
 H    1.337662295660   -2.888393626964   -0.883300000000
 K    0.464712295660    0.440606373036    1.918540000000
 K    0.464712295660    0.440606373036   -1.918540000000
 O    0.164987483576    0.156427196803    0.000000000000
 C   -0.204810499172    1.364840604894    0.000000000000
 N    0.672080146499    2.370812640109    0.000000000000
 H    1.667068738429    2.166097494535    0.000000000000
 H    0.379402419736    3.341456995348    0.000000000000
 C   -1.681517259048    1.706829595124    0.000000000000
 H   -2.278580217932    0.783422876755    0.000000000000
 H   -1.951068109777    2.306811169422   -0.883304103564
 H   -1.951068109777    2.306811169422    0.883304103564
