20

 C    1.046254260921   -2.309137631165    0.000000000000
 C   -0.430455739079   -1.967157631165    0.000000000000
 N   -1.307345739079   -2.973127631165    0.000000000000
 H   -2.302335739079   -2.768417631165    0.000000000000
 H   -1.014665739079   -3.943777631165    0.000000000000
 O   -0.800255739079   -0.758737631165    0.000000000000
 H    1.643314260921   -1.385737631165    0.000000000000
 H    1.315804260921   -2.909117631165    0.883300000000
 H    1.315804260921   -2.909117631165   -0.883300000000
 K    0.442854260921    0.419882368835    1.918540000000
 K    0.442854260921    0.419882368835   -1.918540000000
 O    0.215697540215    0.204506332891    0.000000000000
 C   -0.154100442533    1.412919740983    0.000000000000
 N    0.722790203138    2.418891776198    0.000000000000
 H    1.717778795069    2.214176630623    0.000000000000
 H    0.430112476375    3.389536131437    0.000000000000
 C   -1.630807202408    1.754908731212    0.000000000000
 H   -2.227870161293    0.831502012844    0.000000000000
 H   -1.900358053138    2.354890305511   -0.883304103564
 H   -1.900358053138    2.354890305511    0.883304103564
