20

 C    0.849531948271   -2.495653668976    0.000000000000
 C   -0.627178051729   -2.153673668976    0.000000000000
 N   -1.504068051729   -3.159643668976    0.000000000000
 H   -2.499058051729   -2.954933668976    0.000000000000
 H   -1.211388051729   -4.130293668976    0.000000000000
 O   -0.996978051729   -0.945253668976    0.000000000000
 H    1.446591948271   -1.572253668976    0.000000000000
 H    1.119081948271   -3.095633668976    0.883300000000
 H    1.119081948271   -3.095633668976   -0.883300000000
 K    0.246131948271    0.233366331024    1.918540000000
 K    0.246131948271    0.233366331024   -1.918540000000
 O    0.672088049969    0.637218557688    0.000000000000
 C    0.302290067221    1.845631965780    0.000000000000
 N    1.179180712892    2.851604000995    0.000000000000
 H    2.174169304822    2.646888855420    0.000000000000
 H    0.886502986129    3.822248356234    0.000000000000
 C   -1.174416692655    2.187620956009    0.000000000000
 H   -1.771479651539    1.264214237640    0.000000000000
 H   -1.443967543384    2.787602530308   -0.883304103564
 H   -1.443967543384    2.787602530308    0.883304103564
