20

 C    0.762099809316   -2.578549685781    0.000000000000
 C   -0.714610190684   -2.236569685781    0.000000000000
 N   -1.591500190684   -3.242539685781    0.000000000000
 H   -2.586490190684   -3.037829685781    0.000000000000
 H   -1.298820190684   -4.213189685781    0.000000000000
 O   -1.084410190684   -1.028149685781    0.000000000000
 H    1.359159809316   -1.655149685781    0.000000000000
 H    1.031649809316   -3.178529685781    0.883300000000
 H    1.031649809316   -3.178529685781   -0.883300000000
 K    0.158699809316    0.150470314219    1.918540000000
 K    0.158699809316    0.150470314219   -1.918540000000
 O    0.874928276526    0.829535102042    0.000000000000
 C    0.505130293778    2.037948510134    0.000000000000
 N    1.382020939449    3.043920545349    0.000000000000
 H    2.377009531380    2.839205399774    0.000000000000
 H    1.089343212686    4.014564900588    0.000000000000
 C   -0.971576466097    2.379937500363    0.000000000000
 H   -1.568639424982    1.456530781995    0.000000000000
 H   -1.241127316827    2.979919074662   -0.883304103564
 H   -1.241127316827    2.979919074662    0.883304103564
