20

 C    0.740241774577   -2.599273689982    0.000000000000
 C   -0.736468225423   -2.257293689982    0.000000000000
 N   -1.613358225423   -3.263263689982    0.000000000000
 H   -2.608348225423   -3.058553689982    0.000000000000
 H   -1.320678225423   -4.233913689982    0.000000000000
 O   -1.106268225423   -1.048873689982    0.000000000000
 H    1.337301774577   -1.675873689982    0.000000000000
 H    1.009791774577   -3.199253689982    0.883300000000
 H    1.009791774577   -3.199253689982   -0.883300000000
 K    0.136841774577    0.129746310018    1.918540000000
 K    0.136841774577    0.129746310018   -1.918540000000
 O    0.925638333165    0.877614238131    0.000000000000
 C    0.555840350417    2.086027646222    0.000000000000
 N    1.432730996088    3.091999681437    0.000000000000
 H    2.427719588019    2.887284535863    0.000000000000
 H    1.140053269325    4.062644036676    0.000000000000
 C   -0.920866409458    2.428016636451    0.000000000000
 H   -1.517929368343    1.504609918083    0.000000000000
 H   -1.190417260187    3.027998210750   -0.883304103564
 H   -1.190417260187    3.027998210750    0.883304103564
