20

 C    0.609093566144   -2.723617715190    0.000000000000
 C   -0.867616433856   -2.381637715190    0.000000000000
 N   -1.744506433856   -3.387607715190    0.000000000000
 H   -2.739496433856   -3.182897715190    0.000000000000
 H   -1.451826433856   -4.358257715190    0.000000000000
 O   -1.237416433856   -1.173217715190    0.000000000000
 H    1.206153566144   -1.800217715190    0.000000000000
 H    0.878643566144   -3.323597715190    0.883300000000
 H    0.878643566144   -3.323597715190   -0.883300000000
 K    0.005693566144    0.005402284810    1.918540000000
 K    0.005693566144    0.005402284810   -1.918540000000
 O    1.229898673001    1.166089054662    0.000000000000
 C    0.860100690253    2.374502462753    0.000000000000
 N    1.736991335924    3.380474497969    0.000000000000
 H    2.731979927855    3.175759352394    0.000000000000
 H    1.444313609161    4.351118853207    0.000000000000
 C   -0.616606069622    2.716491452983    0.000000000000
 H   -1.213669028507    1.793084734614    0.000000000000
 H   -0.886156920352    3.316473027281   -0.883304103564
 H   -0.886156920352    3.316473027281    0.883304103564
