20

 C    0.521661427188   -2.806513731995    0.000000000000
 C   -0.955048572812   -2.464533731995    0.000000000000
 N   -1.831938572812   -3.470503731995    0.000000000000
 H   -2.826928572812   -3.265793731995    0.000000000000
 H   -1.539258572812   -4.441153731995    0.000000000000
 O   -1.324848572812   -1.256113731995    0.000000000000
 H    1.118721427188   -1.883113731995    0.000000000000
 H    0.791211427188   -3.406493731995    0.883300000000
 H    0.791211427188   -3.406493731995   -0.883300000000
 K   -0.081738572812   -0.077493731995    1.918540000000
 K   -0.081738572812   -0.077493731995   -1.918540000000
 O    1.432738899558    1.358405599016    0.000000000000
 C    1.062940916810    2.566819007107    0.000000000000
 N    1.939831562481    3.572791042323    0.000000000000
 H    2.934820154412    3.368075896748    0.000000000000
 H    1.647153835718    4.543435397562    0.000000000000
 C   -0.413765843065    2.908807997337    0.000000000000
 H   -1.010828801950    1.985401278968    0.000000000000
 H   -0.683316693794    3.508789571635   -0.883304103564
 H   -0.683316693794    3.508789571635    0.883304103564
