20

 C    0.477945357711   -2.847961740397    0.000000000000
 C   -0.998764642289   -2.505981740397    0.000000000000
 N   -1.875654642289   -3.511951740397    0.000000000000
 H   -2.870644642289   -3.307241740397    0.000000000000
 H   -1.582974642289   -4.482601740397    0.000000000000
 O   -1.368564642289   -1.297561740397    0.000000000000
 H    1.075005357711   -1.924561740397    0.000000000000
 H    0.747495357711   -3.447941740397    0.883300000000
 H    0.747495357711   -3.447941740397   -0.883300000000
 K   -0.125454642289   -0.118941740397    1.918540000000
 K   -0.125454642289   -0.118941740397   -1.918540000000
 O    1.534159012837    1.454563871193    0.000000000000
 C    1.164361030089    2.662977279285    0.000000000000
 N    2.041251675760    3.668949314500    0.000000000000
 H    3.036240267691    3.464234168925    0.000000000000
 H    1.748573948997    4.639593669739    0.000000000000
 C   -0.312345729786    3.004966269514    0.000000000000
 H   -0.909408688671    2.081559551145    0.000000000000
 H   -0.581896580516    3.604947843813   -0.883304103564
 H   -0.581896580516    3.604947843813    0.883304103564
