20

 C    0.456087322972   -2.868685744598    0.000000000000
 C   -1.020622677028   -2.526705744598    0.000000000000
 N   -1.897512677028   -3.532675744598    0.000000000000
 H   -2.892502677028   -3.327965744598    0.000000000000
 H   -1.604832677028   -4.503325744598    0.000000000000
 O   -1.390422677028   -1.318285744598    0.000000000000
 H    1.053147322972   -1.945285744598    0.000000000000
 H    0.725637322972   -3.468665744598    0.883300000000
 H    0.725637322972   -3.468665744598   -0.883300000000
 K   -0.147312677028   -0.139665744598    1.918540000000
 K   -0.147312677028   -0.139665744598   -1.918540000000
 O    1.584869069476    1.502643007281    0.000000000000
 C    1.215071086728    2.711056415373    0.000000000000
 N    2.091961732399    3.717028450588    0.000000000000
 H    3.086950324330    3.512313305014    0.000000000000
 H    1.799284005636    4.687672805827    0.000000000000
 C   -0.261635673147    3.053045405602    0.000000000000
 H   -0.858698632032    2.129638687234    0.000000000000
 H   -0.531186523876    3.653026979901   -0.883304103564
 H   -0.531186523876    3.653026979901    0.883304103564
