20

 C    0.390513218755   -2.930857757202    0.000000000000
 C   -1.086196781245   -2.588877757202    0.000000000000
 N   -1.963086781245   -3.594847757202    0.000000000000
 H   -2.958076781245   -3.390137757202    0.000000000000
 H   -1.670406781245   -4.565497757202    0.000000000000
 O   -1.455996781245   -1.380457757202    0.000000000000
 H    0.987573218755   -2.007457757202    0.000000000000
 H    0.660063218755   -3.530837757202    0.883300000000
 H    0.660063218755   -3.530837757202   -0.883300000000
 K   -0.212886781245   -0.201837757202    1.918540000000
 K   -0.212886781245   -0.201837757202   -1.918540000000
 O    1.736999239394    1.646880415547    0.000000000000
 C    1.367201256646    2.855293823639    0.000000000000
 N    2.244091902317    3.861265858854    0.000000000000
 H    3.239080494248    3.656550713279    0.000000000000
 H    1.951414175554    4.831910214093    0.000000000000
 C   -0.109505503229    3.197282813868    0.000000000000
 H   -0.706568462114    2.273876095500    0.000000000000
 H   -0.379056353958    3.797264388167   -0.883304103564
 H   -0.379056353958    3.797264388167    0.883304103564
