20

 C    0.324939114539   -2.993029769806    0.000000000000
 C   -1.151770885461   -2.651049769806    0.000000000000
 N   -2.028660885461   -3.657019769806    0.000000000000
 H   -3.023650885461   -3.452309769806    0.000000000000
 H   -1.735980885461   -4.627669769806    0.000000000000
 O   -1.521570885461   -1.442629769806    0.000000000000
 H    0.921999114539   -2.069629769806    0.000000000000
 H    0.594489114539   -3.593009769806    0.883300000000
 H    0.594489114539   -3.593009769806   -0.883300000000
 K   -0.278460885461   -0.264009769806    1.918540000000
 K   -0.278460885461   -0.264009769806   -1.918540000000
 O    1.889129409312    1.791117823813    0.000000000000
 C    1.519331426564    2.999531231904    0.000000000000
 N    2.396222072235    4.005503267119    0.000000000000
 H    3.391210664166    3.800788121545    0.000000000000
 H    2.103544345472    4.976147622358    0.000000000000
 C    0.042624666689    3.341520222133    0.000000000000
 H   -0.554438292196    2.418113503765    0.000000000000
 H   -0.226926184041    3.941501796432   -0.883304103564
 H   -0.226926184041    3.941501796432    0.883304103564
