20

 C    0.303081079800   -3.013753774007    0.000000000000
 C   -1.173628920200   -2.671773774007    0.000000000000
 N   -2.050518920200   -3.677743774007    0.000000000000
 H   -3.045508920200   -3.473033774007    0.000000000000
 H   -1.757838920200   -4.648393774007    0.000000000000
 O   -1.543428920200   -1.463353774007    0.000000000000
 H    0.900141079800   -2.090353774007    0.000000000000
 H    0.572631079800   -3.613733774007    0.883300000000
 H    0.572631079800   -3.613733774007   -0.883300000000
 K   -0.300318920200   -0.284733774007    1.918540000000
 K   -0.300318920200   -0.284733774007   -1.918540000000
 O    1.939839465951    1.839196959901    0.000000000000
 C    1.570041483203    3.047610367993    0.000000000000
 N    2.446932128874    4.053582403208    0.000000000000
 H    3.441920720805    3.848867257633    0.000000000000
 H    2.154254402111    5.024226758447    0.000000000000
 C    0.093334723328    3.389599358222    0.000000000000
 H   -0.503728235557    2.466192639854    0.000000000000
 H   -0.176216127401    3.989580932521   -0.883304103564
 H   -0.176216127401    3.989580932521    0.883304103564
