20

 C    0.281223045061   -3.034477778208    0.000000000000
 C   -1.195486954939   -2.692497778208    0.000000000000
 N   -2.072376954939   -3.698467778208    0.000000000000
 H   -3.067366954939   -3.493757778208    0.000000000000
 H   -1.779696954939   -4.669117778208    0.000000000000
 O   -1.565286954939   -1.484077778208    0.000000000000
 H    0.878283045061   -2.111077778208    0.000000000000
 H    0.550773045061   -3.634457778208    0.883300000000
 H    0.550773045061   -3.634457778208   -0.883300000000
 K   -0.322176954939   -0.305457778208    1.918540000000
 K   -0.322176954939   -0.305457778208   -1.918540000000
 O    1.990549522591    1.887276095990    0.000000000000
 C    1.620751539843    3.095689504081    0.000000000000
 N    2.497642185514    4.101661539297    0.000000000000
 H    3.492630777444    3.896946393722    0.000000000000
 H    2.204964458751    5.072305894535    0.000000000000
 C    0.144044779967    3.437678494311    0.000000000000
 H   -0.453018178917    2.514271775942    0.000000000000
 H   -0.125506070762    4.037660068609   -0.883304103564
 H   -0.125506070762    4.037660068609    0.883304103564
