20

 C    0.237506975583   -3.075925786611    0.000000000000
 C   -1.239203024417   -2.733945786611    0.000000000000
 N   -2.116093024417   -3.739915786611    0.000000000000
 H   -3.111083024417   -3.535205786611    0.000000000000
 H   -1.823413024417   -4.710565786611    0.000000000000
 O   -1.609003024417   -1.525525786611    0.000000000000
 H    0.834566975583   -2.152525786611    0.000000000000
 H    0.507056975583   -3.675905786611    0.883300000000
 H    0.507056975583   -3.675905786611   -0.883300000000
 K   -0.365893024417   -0.346905786611    1.918540000000
 K   -0.365893024417   -0.346905786611   -1.918540000000
 O    2.091969635869    1.983434368167    0.000000000000
 C    1.722171653121    3.191847776258    0.000000000000
 N    2.599062298792    4.197819811474    0.000000000000
 H    3.594050890723    3.993104665899    0.000000000000
 H    2.306384572029    5.168464166712    0.000000000000
 C    0.245464893246    3.533836766488    0.000000000000
 H   -0.351598065639    2.610430048119    0.000000000000
 H   -0.024085957483    4.133818340786   -0.883304103564
 H   -0.024085957483    4.133818340786    0.883304103564
