20

 C    0.040784662934   -3.262441824422    0.000000000000
 C   -1.435925337066   -2.920461824422    0.000000000000
 N   -2.312815337066   -3.926431824422    0.000000000000
 H   -3.307805337066   -3.721721824422    0.000000000000
 H   -2.020135337066   -4.897081824422    0.000000000000
 O   -1.805725337066   -1.712041824422    0.000000000000
 H    0.637844662934   -2.339041824422    0.000000000000
 H    0.310334662934   -3.862421824422    0.883300000000
 H    0.310334662934   -3.862421824422   -0.883300000000
 K   -0.562615337066   -0.533421824422    1.918540000000
 K   -0.562615337066   -0.533421824422   -1.918540000000
 O    2.548360145623    2.416146592963    0.000000000000
 C    2.178562162875    3.624560001055    0.000000000000
 N    3.055452808546    4.630532036270    0.000000000000
 H    4.050441400477    4.425816890696    0.000000000000
 H    2.762775081783    5.601176391509    0.000000000000
 C    0.701855403000    3.966548991284    0.000000000000
 H    0.104792444115    3.043142272916    0.000000000000
 H    0.432304552270    4.566530565583   -0.883304103564
 H    0.432304552270    4.566530565583    0.883304103564
