20

 C   -0.024789441283   -3.324613837025    0.000000000000
 C   -1.501499441283   -2.982633837025    0.000000000000
 N   -2.378389441283   -3.988603837025    0.000000000000
 H   -3.373379441283   -3.783893837025    0.000000000000
 H   -2.085709441283   -4.959253837025    0.000000000000
 O   -1.871299441283   -1.774213837025    0.000000000000
 H    0.572270558717   -2.401213837025    0.000000000000
 H    0.244760558717   -3.924593837025    0.883300000000
 H    0.244760558717   -3.924593837025   -0.883300000000
 K   -0.628189441283   -0.595593837025    1.918540000000
 K   -0.628189441283   -0.595593837025   -1.918540000000
 O    2.700490315541    2.560384001229    0.000000000000
 C    2.330692332793    3.768797409321    0.000000000000
 N    3.207582978464    4.774769444536    0.000000000000
 H    4.202571570395    4.570054298961    0.000000000000
 H    2.914905251701    5.745413799775    0.000000000000
 C    0.853985572918    4.110786399550    0.000000000000
 H    0.256922614033    3.187379681182    0.000000000000
 H    0.584434722188    4.710767973849   -0.883304103564
 H    0.584434722188    4.710767973849    0.883304103564
