20

 C   -0.068505510761   -3.366061845428    0.000000000000
 C   -1.545215510761   -3.024081845428    0.000000000000
 N   -2.422105510761   -4.030051845428    0.000000000000
 H   -3.417095510761   -3.825341845428    0.000000000000
 H   -2.129425510761   -5.000701845428    0.000000000000
 O   -1.915015510761   -1.815661845428    0.000000000000
 H    0.528554489239   -2.442661845428    0.000000000000
 H    0.201044489239   -3.966041845428    0.883300000000
 H    0.201044489239   -3.966041845428   -0.883300000000
 K   -0.671905510761   -0.637041845428    1.918540000000
 K   -0.671905510761   -0.637041845428   -1.918540000000
 O    2.801910428820    2.656542273406    0.000000000000
 C    2.432112446072    3.864955681498    0.000000000000
 N    3.309003091742    4.870927716713    0.000000000000
 H    4.303991683673    4.666212571138    0.000000000000
 H    3.016325364980    5.841572071952    0.000000000000
 C    0.955405686196    4.206944671727    0.000000000000
 H    0.358342727311    3.283537953359    0.000000000000
 H    0.685854835467    4.806926246026   -0.883304103564
 H    0.685854835467    4.806926246026    0.883304103564
