20

 C   -0.155937649716   -3.448957862233    0.000000000000
 C   -1.632647649716   -3.106977862233    0.000000000000
 N   -2.509537649716   -4.112947862233    0.000000000000
 H   -3.504527649716   -3.908237862233    0.000000000000
 H   -2.216857649716   -5.083597862233    0.000000000000
 O   -2.002447649716   -1.898557862233    0.000000000000
 H    0.441122350284   -2.525557862233    0.000000000000
 H    0.113612350284   -4.048937862233    0.883300000000
 H    0.113612350284   -4.048937862233   -0.883300000000
 K   -0.759337649716   -0.719937862233    1.918540000000
 K   -0.759337649716   -0.719937862233   -1.918540000000
 O    3.004750655377    2.848858817760    0.000000000000
 C    2.634952672629    4.057272225852    0.000000000000
 N    3.511843318300    5.063244261067    0.000000000000
 H    4.506831910230    4.858529115493    0.000000000000
 H    3.219165591537    6.033888616306    0.000000000000
 C    1.158245912753    4.399261216081    0.000000000000
 H    0.561182953869    3.475854497713    0.000000000000
 H    0.888695062024    4.999242790380   -0.883304103564
 H    0.888695062024    4.999242790380    0.883304103564
