20

 C   -0.177795684455   -3.469681866434    0.000000000000
 C   -1.654505684455   -3.127701866434    0.000000000000
 N   -2.531395684455   -4.133671866434    0.000000000000
 H   -3.526385684455   -3.928961866434    0.000000000000
 H   -2.238715684455   -5.104321866434    0.000000000000
 O   -2.024305684455   -1.919281866434    0.000000000000
 H    0.419264315545   -2.546281866434    0.000000000000
 H    0.091754315545   -4.069661866434    0.883300000000
 H    0.091754315545   -4.069661866434   -0.883300000000
 K   -0.781195684455   -0.740661866434    1.918540000000
 K   -0.781195684455   -0.740661866434   -1.918540000000
 O    3.055460712016    2.896937953849    0.000000000000
 C    2.685662729268    4.105351361940    0.000000000000
 N    3.562553374939    5.111323397156    0.000000000000
 H    4.557541966870    4.906608251581    0.000000000000
 H    3.269875648176    6.081967752394    0.000000000000
 C    1.208955969393    4.447340352170    0.000000000000
 H    0.611893010508    3.523933633801    0.000000000000
 H    0.939405118663    5.047321926468   -0.883304103564
 H    0.939405118663    5.047321926468    0.883304103564
