20

 C   -0.330801927627   -3.614749895842    0.000000000000
 C   -1.807511927627   -3.272769895842    0.000000000000
 N   -2.684401927627   -4.278739895842    0.000000000000
 H   -3.679391927627   -4.074029895842    0.000000000000
 H   -2.391721927627   -5.249389895842    0.000000000000
 O   -2.177311927627   -2.064349895842    0.000000000000
 H    0.266258072373   -2.691349895842    0.000000000000
 H   -0.061251927627   -4.214729895842    0.883300000000
 H   -0.061251927627   -4.214729895842   -0.883300000000
 K   -0.934201927627   -0.885729895842    1.918540000000
 K   -0.934201927627   -0.885729895842   -1.918540000000
 O    3.410431108491    3.233491906468    0.000000000000
 C    3.040633125743    4.441905314560    0.000000000000
 N    3.917523771414    5.447877349775    0.000000000000
 H    4.912512363345    5.243162204201    0.000000000000
 H    3.624846044651    6.418521705014    0.000000000000
 C    1.563926365868    4.783894304789    0.000000000000
 H    0.966863406983    3.860487586421    0.000000000000
 H    1.294375515139    5.383875879088   -0.883304103564
 H    1.294375515139    5.383875879088    0.883304103564
