20

 C   -0.352659962366   -3.635473900044    0.000000000000
 C   -1.829369962366   -3.293493900044    0.000000000000
 N   -2.706259962366   -4.299463900044    0.000000000000
 H   -3.701249962366   -4.094753900044    0.000000000000
 H   -2.413579962366   -5.270113900044    0.000000000000
 O   -2.199169962366   -2.085073900044    0.000000000000
 H    0.244400037634   -2.712073900044    0.000000000000
 H   -0.083109962366   -4.235453900044    0.883300000000
 H   -0.083109962366   -4.235453900044   -0.883300000000
 K   -0.956059962366   -0.906453900044    1.918540000000
 K   -0.956059962366   -0.906453900044   -1.918540000000
 O    3.461141165131    3.281571042557    0.000000000000
 C    3.091343182383    4.489984450649    0.000000000000
 N    3.968233828053    5.495956485864    0.000000000000
 H    4.963222419984    5.291241340289    0.000000000000
 H    3.675556101291    6.466600841103    0.000000000000
 C    1.614636422507    4.831973440878    0.000000000000
 H    1.017573463622    3.908566722510    0.000000000000
 H    1.345085571778    5.431955015177   -0.883304103564
 H    1.345085571778    5.431955015177    0.883304103564
