20

 C   -0.396376031844   -3.676921908446    0.000000000000
 C   -1.873086031844   -3.334941908446    0.000000000000
 N   -2.749976031844   -4.340911908446    0.000000000000
 H   -3.744966031844   -4.136201908446    0.000000000000
 H   -2.457296031844   -5.311561908446    0.000000000000
 O   -2.242886031844   -2.126521908446    0.000000000000
 H    0.200683968156   -2.753521908446    0.000000000000
 H   -0.126826031844   -4.276901908446    0.883300000000
 H   -0.126826031844   -4.276901908446   -0.883300000000
 K   -0.999776031844   -0.947901908446    1.918540000000
 K   -0.999776031844   -0.947901908446   -1.918540000000
 O    3.562561278409    3.377729314734    0.000000000000
 C    3.192763295661    4.586142722826    0.000000000000
 N    4.069653941332    5.592114758041    0.000000000000
 H    5.064642533263    5.387399612466    0.000000000000
 H    3.776976214569    6.562759113280    0.000000000000
 C    1.716056535786    4.928131713055    0.000000000000
 H    1.118993576901    4.004724994687    0.000000000000
 H    1.446505685056    5.528113287354   -0.883304103564
 H    1.446505685056    5.528113287354    0.883304103564
