20

 C   -0.418234066582   -3.697645912647    0.000000000000
 C   -1.894944066582   -3.355665912647    0.000000000000
 N   -2.771834066582   -4.361635912647    0.000000000000
 H   -3.766824066582   -4.156925912647    0.000000000000
 H   -2.479154066582   -5.332285912647    0.000000000000
 O   -2.264744066582   -2.147245912647    0.000000000000
 H    0.178825933418   -2.774245912647    0.000000000000
 H   -0.148684066582   -4.297625912647    0.883300000000
 H   -0.148684066582   -4.297625912647   -0.883300000000
 K   -1.021634066582   -0.968625912647    1.918540000000
 K   -1.021634066582   -0.968625912647   -1.918540000000
 O    3.613271335048    3.425808450823    0.000000000000
 C    3.243473352301    4.634221858914    0.000000000000
 N    4.120363997971    5.640193894129    0.000000000000
 H    5.115352589902    5.435478748555    0.000000000000
 H    3.827686271208    6.610838249368    0.000000000000
 C    1.766766592425    4.976210849143    0.000000000000
 H    1.169703633540    4.052804130775    0.000000000000
 H    1.497215741696    5.576192423442   -0.883304103564
 H    1.497215741696    5.576192423442    0.883304103564
