20

 C   -0.461950136060   -3.739093921050    0.000000000000
 C   -1.938660136060   -3.397113921050    0.000000000000
 N   -2.815550136060   -4.403083921050    0.000000000000
 H   -3.810540136060   -4.198373921050    0.000000000000
 H   -2.522870136060   -5.373733921050    0.000000000000
 O   -2.308460136060   -2.188693921050    0.000000000000
 H    0.135109863940   -2.815693921050    0.000000000000
 H   -0.192400136060   -4.339073921050    0.883300000000
 H   -0.192400136060   -4.339073921050   -0.883300000000
 K   -1.065350136060   -1.010073921050    1.918540000000
 K   -1.065350136060   -1.010073921050   -1.918540000000
 O    3.714691448327    3.521966723000    0.000000000000
 C    3.344893465579    4.730380131091    0.000000000000
 N    4.221784111250    5.736352166307    0.000000000000
 H    5.216772703181    5.531637020732    0.000000000000
 H    3.929106384487    6.706996521545    0.000000000000
 C    1.868186705704    5.072369121321    0.000000000000
 H    1.271123746819    4.148962402952    0.000000000000
 H    1.598635854974    5.672350695619   -0.883304103564
 H    1.598635854974    5.672350695619    0.883304103564
