20

 C   -0.593098344493   -3.863437946257    0.000000000000
 C   -2.069808344493   -3.521457946257    0.000000000000
 N   -2.946698344493   -4.527427946257    0.000000000000
 H   -3.941688344493   -4.322717946257    0.000000000000
 H   -2.654018344493   -5.498077946257    0.000000000000
 O   -2.439608344493   -2.313037946257    0.000000000000
 H    0.003961655507   -2.940037946257    0.000000000000
 H   -0.323548344493   -4.463417946257    0.883300000000
 H   -0.323548344493   -4.463417946257   -0.883300000000
 K   -1.196498344493   -1.134417946257    1.918540000000
 K   -1.196498344493   -1.134417946257   -1.918540000000
 O    4.018951788163    3.810441539531    0.000000000000
 C    3.649153805415    5.018854947622    0.000000000000
 N    4.526044451086    6.024826982838    0.000000000000
 H    5.521033043016    5.820111837263    0.000000000000
 H    4.233366724323    6.995471338076    0.000000000000
 C    2.172447045539    5.360843937852    0.000000000000
 H    1.575384086655    4.437437219483    0.000000000000
 H    1.902896194810    5.960825512150   -0.883304103564
 H    1.902896194810    5.960825512150    0.883304103564
