20

 C   -0.614956379232   -3.884161950458    0.000000000000
 C   -2.091666379232   -3.542181950458    0.000000000000
 N   -2.968556379232   -4.548151950458    0.000000000000
 H   -3.963546379232   -4.343441950458    0.000000000000
 H   -2.675876379232   -5.518801950458    0.000000000000
 O   -2.461466379232   -2.333761950458    0.000000000000
 H   -0.017896379232   -2.960761950458    0.000000000000
 H   -0.345406379232   -4.484141950458    0.883300000000
 H   -0.345406379232   -4.484141950458   -0.883300000000
 K   -1.218356379232   -1.155141950458    1.918540000000
 K   -1.218356379232   -1.155141950458   -1.918540000000
 O    4.069661844802    3.858520675619    0.000000000000
 C    3.699863862054    5.066934083711    0.000000000000
 N    4.576754507725    6.072906118926    0.000000000000
 H    5.571743099656    5.868190973352    0.000000000000
 H    4.284076780962    7.043550474165    0.000000000000
 C    2.223157102179    5.408923073940    0.000000000000
 H    1.626094143294    4.485516355572    0.000000000000
 H    1.953606251450    6.008904648239   -0.883304103564
 H    1.953606251450    6.008904648239    0.883304103564
