20

 C   -0.636814413971   -3.904885954659    0.000000000000
 C   -2.113524413971   -3.562905954659    0.000000000000
 N   -2.990414413971   -4.568875954659    0.000000000000
 H   -3.985404413971   -4.364165954659    0.000000000000
 H   -2.697734413971   -5.539525954659    0.000000000000
 O   -2.483324413971   -2.354485954659    0.000000000000
 H   -0.039754413971   -2.981485954659    0.000000000000
 H   -0.367264413971   -4.504865954659    0.883300000000
 H   -0.367264413971   -4.504865954659   -0.883300000000
 K   -1.240214413971   -1.175865954659    1.918540000000
 K   -1.240214413971   -1.175865954659   -1.918540000000
 O    4.120371901442    3.906599811708    0.000000000000
 C    3.750573918694    5.115013219799    0.000000000000
 N    4.627464564364    6.120985255015    0.000000000000
 H    5.622453156295    5.916270109440    0.000000000000
 H    4.334786837601    7.091629610254    0.000000000000
 C    2.273867158818    5.457002210029    0.000000000000
 H    1.676804199933    4.533595491660    0.000000000000
 H    2.004316308089    6.056983784328   -0.883304103564
 H    2.004316308089    6.056983784328    0.883304103564
