20

 C   -0.658672448710   -3.925609958861    0.000000000000
 C   -2.135382448710   -3.583629958861    0.000000000000
 N   -3.012272448710   -4.589599958861    0.000000000000
 H   -4.007262448710   -4.384889958861    0.000000000000
 H   -2.719592448710   -5.560249958861    0.000000000000
 O   -2.505182448710   -2.375209958861    0.000000000000
 H   -0.061612448710   -3.002209958861    0.000000000000
 H   -0.389122448710   -4.525589958861    0.883300000000
 H   -0.389122448710   -4.525589958861   -0.883300000000
 K   -1.262072448710   -1.196589958861    1.918540000000
 K   -1.262072448710   -1.196589958861   -1.918540000000
 O    4.171081958081    3.954678947796    0.000000000000
 C    3.801283975333    5.163092355888    0.000000000000
 N    4.678174621004    6.169064391103    0.000000000000
 H    5.673163212934    5.964349245529    0.000000000000
 H    4.385496894241    7.139708746342    0.000000000000
 C    2.324577215457    5.505081346117    0.000000000000
 H    1.727514256573    4.581674627749    0.000000000000
 H    2.055026364728    6.105062920416   -0.883304103564
 H    2.055026364728    6.105062920416    0.883304103564
