20

 C   -0.680530483449   -3.946333963062    0.000000000000
 C   -2.157240483449   -3.604353963062    0.000000000000
 N   -3.034130483449   -4.610323963062    0.000000000000
 H   -4.029120483449   -4.405613963062    0.000000000000
 H   -2.741450483449   -5.580973963062    0.000000000000
 O   -2.527040483449   -2.395933963062    0.000000000000
 H   -0.083470483449   -3.022933963062    0.000000000000
 H   -0.410980483449   -4.546313963062    0.883300000000
 H   -0.410980483449   -4.546313963062   -0.883300000000
 K   -1.283930483449   -1.217313963062    1.918540000000
 K   -1.283930483449   -1.217313963062   -1.918540000000
 O    4.221792014720    4.002758083885    0.000000000000
 C    3.851994031972    5.211171491977    0.000000000000
 N    4.728884677643    6.217143527192    0.000000000000
 H    5.723873269574    6.012428381617    0.000000000000
 H    4.436206950880    7.187787882431    0.000000000000
 C    2.375287272097    5.553160482206    0.000000000000
 H    1.778224313212    4.629753763837    0.000000000000
 H    2.105736421367    6.153142056505   -0.883304103564
 H    2.105736421367    6.153142056505    0.883304103564
