20

 C   -0.702388518188   -3.967057967263    0.000000000000
 C   -2.179098518188   -3.625077967263    0.000000000000
 N   -3.055988518188   -4.631047967263    0.000000000000
 H   -4.050978518188   -4.426337967263    0.000000000000
 H   -2.763308518188   -5.601697967263    0.000000000000
 O   -2.548898518188   -2.416657967263    0.000000000000
 H   -0.105328518188   -3.043657967263    0.000000000000
 H   -0.432838518188   -4.567037967263    0.883300000000
 H   -0.432838518188   -4.567037967263   -0.883300000000
 K   -1.305788518188   -1.238037967263    1.918540000000
 K   -1.305788518188   -1.238037967263   -1.918540000000
 O    4.272502071359    4.050837219973    0.000000000000
 C    3.902704088611    5.259250628065    0.000000000000
 N    4.779594734282    6.265222663280    0.000000000000
 H    5.774583326213    6.060507517706    0.000000000000
 H    4.486917007519    7.235867018519    0.000000000000
 C    2.425997328736    5.601239618294    0.000000000000
 H    1.828934369851    4.677832899926    0.000000000000
 H    2.156446478007    6.201221192593   -0.883304103564
 H    2.156446478007    6.201221192593    0.883304103564
