20

 C   -0.724246552926   -3.987781971464    0.000000000000
 C   -2.200956552926   -3.645801971464    0.000000000000
 N   -3.077846552926   -4.651771971464    0.000000000000
 H   -4.072836552926   -4.447061971464    0.000000000000
 H   -2.785166552926   -5.622421971464    0.000000000000
 O   -2.570756552926   -2.437381971464    0.000000000000
 H   -0.127186552926   -3.064381971464    0.000000000000
 H   -0.454696552926   -4.587761971464    0.883300000000
 H   -0.454696552926   -4.587761971464   -0.883300000000
 K   -1.327646552926   -1.258761971464    1.918540000000
 K   -1.327646552926   -1.258761971464   -1.918540000000
 O    4.323212127999    4.098916356062    0.000000000000
 C    3.953414145251    5.307329764154    0.000000000000
 N    4.830304790922    6.313301799369    0.000000000000
 H    5.825293382852    6.108586653794    0.000000000000
 H    4.537627064159    7.283946154608    0.000000000000
 C    2.476707385375    5.649318754383    0.000000000000
 H    1.879644426491    4.725912036015    0.000000000000
 H    2.207156534646    6.249300328682   -0.883304103564
 H    2.207156534646    6.249300328682    0.883304103564
