20

 C   -0.811678691882   -4.070677988269    0.000000000000
 C   -2.288388691882   -3.728697988269    0.000000000000
 N   -3.165278691882   -4.734667988269    0.000000000000
 H   -4.160268691882   -4.529957988269    0.000000000000
 H   -2.872598691882   -5.705317988269    0.000000000000
 O   -2.658188691882   -2.520277988269    0.000000000000
 H   -0.214618691882   -3.147277988269    0.000000000000
 H   -0.542128691882   -4.670657988269    0.883300000000
 H   -0.542128691882   -4.670657988269   -0.883300000000
 K   -1.415078691882   -1.341657988269    1.918540000000
 K   -1.415078691882   -1.341657988269   -1.918540000000
 O    4.526052354556    4.291232900416    0.000000000000
 C    4.156254371808    5.499646308508    0.000000000000
 N    5.033145017479    6.505618343723    0.000000000000
 H    6.028133609410    6.300903198148    0.000000000000
 H    4.740467290716    7.476262698962    0.000000000000
 C    2.679547611933    5.841635298737    0.000000000000
 H    2.082484653048    4.918228580369    0.000000000000
 H    2.409996761203    6.441616873036   -0.883304103564
 H    2.409996761203    6.441616873036    0.883304103564
