17

 N   -0.912106614733   -0.825873935476    0.513220159841
 C    0.298081452111   -0.170667731800    0.517181783809
 N    1.531493866414   -0.769345426262    0.529220068714
 C    2.501917066470    0.120830715349    0.517347611741
 N    2.298840229057    1.482468848863    0.510512451399
 H    3.102667354308    2.102429388618    0.428524428977
 N    3.827371820707   -0.297844006331    0.439000308506
 H    4.481908026039    0.233959218069    1.006641085236
 H    3.906176908098   -1.298544150266    0.600583646495
 C    1.039566486740    2.168502552394    0.523466238076
 O    1.011986117635    3.396675637171    0.519378109648
 C   -0.033218639236    1.194809163120    0.529667436016
 N   -1.404291941005    1.381140208433    0.529592251300
 C   -1.897815435516    0.142537194388    0.519262151635
 H   -2.955313348784   -0.111609427444    0.516315507209
 H   -1.037203611264   -1.832457020708    0.504560608810
CS   -0.913737039625   -0.816211734212   -0.586736195466
