17

 N   -0.911967865179   -0.826696191147    0.606826712549
 C    0.298220201665   -0.171489987471    0.610788336517
 N    1.531632615968   -0.770167681933    0.622826621422
 C    2.502055816024    0.120008459678    0.610954164449
 N    2.298978978611    1.481646593192    0.604119004107
 H    3.102806103862    2.101607132947    0.522130981685
 N    3.827510570261   -0.298666262002    0.532606861214
 H    4.482046775593    0.233136962398    1.100247637944
 H    3.906315657652   -1.299366405937    0.694190199203
 C    1.039705236294    2.167680296723    0.617072790784
 O    1.012124867189    3.395853381500    0.612984662356
 C   -0.033079889682    1.193986907449    0.623273988724
 N   -1.404153191451    1.380317952762    0.623198804008
 C   -1.897676685962    0.141714938717    0.612868704343
 H   -2.955174599230   -0.112431683115    0.609922059917
 H   -1.037064861710   -1.833279276379    0.598167161518
CS   -0.913894730960   -0.815277226018   -0.693121707360
