17

 N   -0.911898490402   -0.827107318983    0.653629988903
 C    0.298289576442   -0.171901115307    0.657591612871
 N    1.531701990745   -0.770578809769    0.669629897776
 C    2.502125190801    0.119597331842    0.657757440803
 N    2.299048353388    1.481235465356    0.650922280461
 H    3.102875478639    2.101196005111    0.568934258039
 N    3.827579945038   -0.299077389838    0.579410137568
 H    4.482116150370    0.232725834562    1.147050914298
 H    3.906385032429   -1.299777533773    0.740993475557
 C    1.039774611071    2.167269168887    0.663876067138
 O    1.012194241966    3.395442253664    0.659787938710
 C   -0.033010514905    1.193575779613    0.670077265078
 N   -1.404083816674    1.379906824926    0.670002080362
 C   -1.897607311185    0.141303810881    0.659671980697
 H   -2.955105224453   -0.112842810951    0.656725336271
 H   -1.036995486933   -1.833690404215    0.644970437872
CS   -0.913973576628   -0.814809971920   -0.746314463306
