17

 N   -0.911829115625   -0.827518446819    0.700433265258
 C    0.298358951219   -0.172312243143    0.704394889226
 N    1.531771365522   -0.770989937605    0.716433174131
 C    2.502194565578    0.119186204006    0.704560717158
 N    2.299117728165    1.480824337520    0.697725556816
 H    3.102944853416    2.100784877275    0.615737534394
 N    3.827649319815   -0.299488517674    0.626213413923
 H    4.482185525147    0.232314706726    1.193854190653
 H    3.906454407206   -1.300188661609    0.787796751912
 C    1.039843985848    2.166858041051    0.710679343493
 O    1.012263616743    3.395031125828    0.706591215065
 C   -0.032941140128    1.193164651777    0.716880541433
 N   -1.404014441897    1.379495697090    0.716805356717
 C   -1.897537936408    0.140892683045    0.706475257052
 H   -2.955035849676   -0.113253938787    0.703528612626
 H   -1.036926112156   -1.834101532051    0.691773714227
CS   -0.914052422296   -0.814342717823   -0.799507219253
