17

 N   -0.911690366071   -0.828340702491    0.794039817966
 C    0.298497700773   -0.173134498815    0.798001441934
 N    1.531910115076   -0.771812193277    0.810039726839
 C    2.502333315132    0.118363948334    0.798167269866
 N    2.299256477719    1.480002081848    0.791332109524
 H    3.103083602970    2.099962621603    0.709344087102
 N    3.827788069369   -0.300310773346    0.719819966631
 H    4.482324274701    0.231492451054    1.287460743361
 H    3.906593156760   -1.301010917281    0.881403304620
 C    1.039982735402    2.166035785379    0.804285896201
 O    1.012402366297    3.394208870156    0.800197767773
 C   -0.032802390574    1.192342396105    0.810487094141
 N   -1.403875692343    1.378673441418    0.810411909425
 C   -1.897399186854    0.140070427373    0.800081809760
 H   -2.954897100122   -0.114076194459    0.797135165334
 H   -1.036787362602   -1.834923787723    0.785380266935
CS   -0.914210113631   -0.813408209629   -0.905892731146
