17

 N   -0.911551616517   -0.829162958163    0.887646370674
 C    0.298636450327   -0.173956754487    0.891607994642
 N    1.532048864630   -0.772634448949    0.903646279547
 C    2.502472064686    0.117541692662    0.891773822574
 N    2.299395227273    1.479179826176    0.884938662232
 H    3.103222352524    2.099140365931    0.802950639810
 N    3.827926818923   -0.301133029018    0.813426519339
 H    4.482463024255    0.230670195382    1.381067296069
 H    3.906731906314   -1.301833172953    0.975009857328
 C    1.040121484956    2.165213529707    0.897892448909
 O    1.012541115851    3.393386614484    0.893804320481
 C   -0.032663641020    1.191520140433    0.904093646849
 N   -1.403736942789    1.377851185746    0.904018462133
 C   -1.897260437300    0.139248171701    0.893688362468
 H   -2.954758350568   -0.114898450131    0.890741718042
 H   -1.036648613048   -1.835746043395    0.878986819643
CS   -0.914367804967   -0.812473701435   -1.012278243039
