17

 N   -0.911343492186   -0.830396341670    1.028056199736
 C    0.298844574658   -0.175190137994    1.032017823704
 N    1.532256988961   -0.773867832456    1.044056108609
 C    2.502680189017    0.116308309155    1.032183651636
 N    2.299603351604    1.477946442669    1.025348491294
 H    3.103430476855    2.097906982424    0.943360468872
 N    3.828134943254   -0.302366412525    0.953836348401
 H    4.482671148586    0.229436811875    1.521477125131
 H    3.906940030645   -1.303066556460    1.115419686390
 C    1.040329609287    2.163980146200    1.038302277971
 O    1.012749240182    3.392153230977    1.034214149543
 C   -0.032455516689    1.190286756926    1.044503475911
 N   -1.403528818458    1.376617802239    1.044428291195
 C   -1.897052312969    0.138014788194    1.034098191530
 H   -2.954550226237   -0.116131833638    1.031151547104
 H   -1.036440488717   -1.836979426902    1.019396648705
CS   -0.914604341970   -0.811071939143   -1.171856510879
