17

 N   -0.911135367855   -0.831629725178    1.168466028799
 C    0.299052698989   -0.176423521502    1.172427652767
 N    1.532465113292   -0.775101215964    1.184465937672
 C    2.502888313348    0.115074925647    1.172593480699
 N    2.299811475935    1.476713059161    1.165758320357
 H    3.103638601186    2.096673598916    1.083770297935
 N    3.828343067585   -0.303599796033    1.094246177464
 H    4.482879272917    0.228203428367    1.661886954194
 H    3.907148154976   -1.304299939968    1.255829515453
 C    1.040537733618    2.162746762692    1.178712107034
 O    1.012957364513    3.390919847469    1.174623978606
 C   -0.032247392358    1.189053373418    1.184913304974
 N   -1.403320694127    1.375384418731    1.184838120258
 C   -1.896844188638    0.136781404686    1.174508020593
 H   -2.954342101906   -0.117365217146    1.171561376167
 H   -1.036232364386   -1.838212810410    1.159806477768
CS   -0.914840878974   -0.809670176852   -1.331434778718
