17

 N   -0.911065993078   -0.832040853014    1.215269305153
 C    0.299122073766   -0.176834649338    1.219230929121
 N    1.532534488069   -0.775512343800    1.231269214026
 C    2.502957688125    0.114663797811    1.219396757053
 N    2.299880850712    1.476301931325    1.212561596711
 H    3.103707975963    2.096262471080    1.130573574289
 N    3.828412442362   -0.304010923869    1.141049453818
 H    4.482948647694    0.227792300531    1.708690230548
 H    3.907217529753   -1.304711067804    1.302632791807
 C    1.040607108395    2.162335634856    1.225515383388
 O    1.013026739290    3.390508719633    1.221427254960
 C   -0.032178017581    1.188642245582    1.231716581328
 N   -1.403251319350    1.374973290895    1.231641396612
 C   -1.896774813861    0.136370276850    1.221311296947
 H   -2.954272727129   -0.117776344982    1.218364652521
 H   -1.036162989609   -1.838623938246    1.206609754122
CS   -0.914919724641   -0.809202922754   -1.384627534665
