17

 N   -0.910857868748   -0.833274236522    1.355679134215
 C    0.299330198096   -0.178068032846    1.359640758183
 N    1.532742612399   -0.776745727308    1.371679043088
 C    2.503165812455    0.113430414303    1.359806586115
 N    2.300088975042    1.475068547817    1.352971425773
 H    3.103916100293    2.095029087572    1.270983403351
 N    3.828620566692   -0.305244307377    1.281459282880
 H    4.483156772024    0.226558917023    1.849100059610
 H    3.907425654083   -1.305944451312    1.443042620869
 C    1.040815232725    2.161102251348    1.365925212450
 O    1.013234863620    3.389275336125    1.361837084022
 C   -0.031969893251    1.187408862074    1.372126410390
 N   -1.403043195020    1.373739907387    1.372051225674
 C   -1.896566689531    0.135136893342    1.361721126009
 H   -2.954064602799   -0.119009728490    1.358774481583
 H   -1.035954865279   -1.839857321754    1.347019583184
CS   -0.915156261645   -0.807801160463   -1.544205802505
