17

 N   -0.910372245309   -0.836152131373    1.683302068694
 C    0.299815821535   -0.180945927697    1.687263692662
 N    1.533228235838   -0.779623622159    1.699301977567
 C    2.503651435894    0.110552519452    1.687429520594
 N    2.300574598481    1.472190652966    1.680594360252
 H    3.104401723732    2.092151192721    1.598606337830
 N    3.829106190131   -0.308122202228    1.609082217359
 H    4.483642395463    0.223681022172    2.176722994089
 H    3.907911277522   -1.308822346163    1.770665555348
 C    1.041300856164    2.158224356497    1.693548146929
 O    1.013720487059    3.386397441274    1.689460018501
 C   -0.031484269812    1.184530967223    1.699749344869
 N   -1.402557571581    1.370862012536    1.699674160153
 C   -1.896081066092    0.132258998491    1.689344060488
 H   -2.953578979360   -0.121887623341    1.686397416062
 H   -1.035469241840   -1.842735216605    1.674642517663
CS   -0.915708181319   -0.804530381783   -1.916555094131
