17

 N   -0.910025371424   -0.838207770552    1.917318450465
 C    0.300162695420   -0.183001566876    1.921280074433
 N    1.533575109723   -0.781679261338    1.933318359338
 C    2.503998309779    0.108496880273    1.921445902365
 N    2.300921472366    1.470135013787    1.914610742023
 H    3.104748597617    2.090095553542    1.832622719601
 N    3.829453064016   -0.310177841407    1.843098599130
 H    4.483989269348    0.221625382993    2.410739375860
 H    3.908258151407   -1.310877985342    2.004681937119
 C    1.041647730049    2.156168717318    1.927564528700
 O    1.014067360944    3.384341802095    1.923476400272
 C   -0.031137395927    1.182475328044    1.933765726640
 N   -1.402210697696    1.368806373357    1.933690541924
 C   -1.895734192207    0.130203359312    1.923360442259
 H   -2.953232105475   -0.123943262520    1.920413797833
 H   -1.035122367955   -1.844790855784    1.908658899434
CS   -0.916102409658   -0.802194111297   -2.182518873863
