17

 N   -0.909955996647   -0.838618898388    1.964121726819
 C    0.300232070197   -0.183412694712    1.968083350787
 N    1.533644484500   -0.782090389174    1.980121635692
 C    2.504067684556    0.108085752437    1.968249178719
 N    2.300990847143    1.469723885951    1.961414018377
 H    3.104817972394    2.089684425706    1.879425995955
 N    3.829522438793   -0.310588969243    1.889901875484
 H    4.484058644125    0.221214255157    2.457542652214
 H    3.908327526184   -1.311289113178    2.051485213473
 C    1.041717104826    2.155757589482    1.974367805054
 O    1.014136735721    3.383930674259    1.970279676626
 C   -0.031068021150    1.182064200208    1.980569002994
 N   -1.402141322919    1.368395245521    1.980493818278
 C   -1.895664817430    0.129792231476    1.970163718613
 H   -2.953162730698   -0.124354390356    1.967217074187
 H   -1.035052993178   -1.845201983620    1.955462175788
CS   -0.916181255326   -0.801726857200   -2.235711629810
