17

 N   -0.909817247094   -0.839441154060    2.057728279527
 C    0.300370819750   -0.184234950384    2.061689903495
 N    1.533783234053   -0.782912644846    2.073728188400
 C    2.504206434109    0.107263496765    2.061855731427
 N    2.301129596696    1.468901630279    2.055020571085
 H    3.104956721947    2.088862170034    1.973032548663
 N    3.829661188346   -0.311411224915    1.983508428192
 H    4.484197393678    0.220391999485    2.551149204922
 H    3.908466275737   -1.312111368850    2.145091766181
 C    1.041855854379    2.154935333810    2.067974357762
 O    1.014275485274    3.383108418587    2.063886229334
 C   -0.030929271597    1.181241944536    2.074175555702
 N   -1.402002573366    1.367572989849    2.074100370986
 C   -1.895526067877    0.128969975804    2.063770271321
 H   -2.953023981145   -0.125176646028    2.060823626895
 H   -1.034914243625   -1.846024239292    2.049068728496
CS   -0.916338946661   -0.800792349005   -2.342097141703
