17

 N   -0.909609122763   -0.840674537568    2.198138108589
 C    0.300578944081   -0.185468333892    2.202099732557
 N    1.533991358384   -0.784146028354    2.214138017462
 C    2.504414558440    0.106030113257    2.202265560489
 N    2.301337721027    1.467668246771    2.195430400147
 H    3.105164846278    2.087628786526    2.113442377725
 N    3.829869312677   -0.312644608423    2.123918257254
 H    4.484405518009    0.219158615977    2.691559033984
 H    3.908674400068   -1.313344752358    2.285501595243
 C    1.042063978710    2.153701950302    2.208384186824
 O    1.014483609605    3.381875035079    2.204296058396
 C   -0.030721147266    1.180008561028    2.214585384764
 N   -1.401794449035    1.366339606341    2.214510200048
 C   -1.895317943546    0.127736592296    2.204180100383
 H   -2.952815856814   -0.126410029536    2.201233455957
 H   -1.034706119294   -1.847257622800    2.189478557558
CS   -0.916575483665   -0.799390586714   -2.501675409543
