17

 N   -0.909470373209   -0.841496793239    2.291744661298
 C    0.300717693635   -0.186290589563    2.295706285266
 N    1.534130107938   -0.784968284025    2.307744570171
 C    2.504553307994    0.105207857586    2.295872113198
 N    2.301476470581    1.466845991100    2.289036952856
 H    3.105303595832    2.086806530855    2.207048930434
 N    3.830008062231   -0.313466864094    2.217524809963
 H    4.484544267563    0.218336360306    2.785165586693
 H    3.908813149622   -1.314167008029    2.379108147952
 C    1.042202728264    2.152879694631    2.301990739533
 O    1.014622359159    3.381052779408    2.297902611105
 C   -0.030582397712    1.179186305357    2.308191937473
 N   -1.401655699481    1.365517350670    2.308116752757
 C   -1.895179193992    0.126914336625    2.297786653092
 H   -2.952677107260   -0.127232285207    2.294840008666
 H   -1.034567369740   -1.848079878471    2.283085110267
CS   -0.916733175000   -0.798456078519   -2.608060921436
