17

 N   -0.909123499324   -0.843552432419    2.525761043068
 C    0.301064567520   -0.188346228743    2.529722667036
 N    1.534476981823   -0.787023923205    2.541760951941
 C    2.504900181879    0.103152218406    2.529888494968
 N    2.301823344466    1.464790351920    2.523053334626
 H    3.105650469717    2.084750891675    2.441065312204
 N    3.830354936116   -0.315522503274    2.451541191733
 H    4.484891141448    0.216280721126    3.019181968463
 H    3.909160023507   -1.316222647209    2.613124529722
 C    1.042549602149    2.150824055451    2.536007121303
 O    1.014969233044    3.378997140228    2.531918992875
 C   -0.030235523827    1.177130666177    2.542208319243
 N   -1.401308825596    1.363461711490    2.542133134527
 C   -1.894832320107    0.124858697445    2.531803034862
 H   -2.952330233375   -0.129287924387    2.528856390436
 H   -1.034220495855   -1.850135517651    2.517101492037
CS   -0.917127403339   -0.796119808034   -2.874024701169
