17

 N   -0.908846000216   -0.845196943762    2.712974148485
 C    0.301342066628   -0.189990740086    2.716935772453
 N    1.534754480931   -0.788668434548    2.728974057358
 C    2.505177680987    0.101507707063    2.717101600385
 N    2.302100843574    1.463145840577    2.710266440043
 H    3.105927968825    2.083106380332    2.628278417621
 N    3.830632435224   -0.317167014617    2.638754297150
 H    4.485168640556    0.214636209783    3.206395073880
 H    3.909437522615   -1.317867158552    2.800337635139
 C    1.042827101257    2.149179544108    2.723220226720
 O    1.015246732152    3.377352628885    2.719132098292
 C   -0.029958024719    1.175486154834    2.729421424660
 N   -1.401031326488    1.361817200147    2.729346239944
 C   -1.894554820999    0.123214186102    2.719016140279
 H   -2.952052734267   -0.130932435730    2.716069495853
 H   -1.033942996747   -1.851780028994    2.704314597454
CS   -0.917442786010   -0.794250791645   -3.086795724955
