17

 N   -0.908776625439   -0.845608071598    2.759777424839
 C    0.301411441405   -0.190401867922    2.763739048807
 N    1.534823855708   -0.789079562384    2.775777333712
 C    2.505247055764    0.101096579227    2.763904876739
 N    2.302170218351    1.462734712741    2.757069716397
 H    3.105997343602    2.082695252496    2.675081693975
 N    3.830701810001   -0.317578142453    2.685557573504
 H    4.485238015333    0.214225081947    3.253198350234
 H    3.909506897392   -1.318278286388    2.847140911493
 C    1.042896476034    2.148768416272    2.770023503074
 O    1.015316106929    3.376941501049    2.765935374646
 C   -0.029888649942    1.175075026998    2.776224701014
 N   -1.400961951711    1.361406072311    2.776149516298
 C   -1.894485446222    0.122803058266    2.765819416633
 H   -2.951983359490   -0.131343563566    2.762872772207
 H   -1.033873621970   -1.852191156830    2.751117873808
CS   -0.917521631678   -0.793783537548   -3.139988480902
