17

 N   -0.908568501109   -0.846841455106    2.900187253901
 C    0.301619565735   -0.191635251430    2.904148877869
 N    1.535031980038   -0.790312945892    2.916187162774
 C    2.505455180094    0.099863195719    2.904314705801
 N    2.302378342681    1.461501329233    2.897479545459
 H    3.106205467932    2.081461868988    2.815491523037
 N    3.830909934331   -0.318811525961    2.825967402566
 H    4.485446139663    0.212991698439    3.393608179296
 H    3.909715021722   -1.319511669896    2.987550740555
 C    1.043104600364    2.147535032764    2.910433332136
 O    1.015524231259    3.375708117541    2.906345203708
 C   -0.029680525612    1.173841643490    2.916634530076
 N   -1.400753827381    1.360172688803    2.916559345360
 C   -1.894277321892    0.121569674758    2.906229245695
 H   -2.951775235160   -0.132576947074    2.903282601269
 H   -1.033665497640   -1.853424540338    2.891527702870
CS   -0.917758168682   -0.792381775256   -3.299566748741
