17

 N   -0.908499126332   -0.847252582942    2.946990530255
 C    0.301688940512   -0.192046379266    2.950952154223
 N    1.535101354815   -0.790724073728    2.962990439128
 C    2.505524554871    0.099452067883    2.951117982155
 N    2.302447717458    1.461090201397    2.944282821813
 H    3.106274842709    2.081050741152    2.862294799391
 N    3.830979309108   -0.319222653797    2.872770678920
 H    4.485515514440    0.212580570603    3.440411455650
 H    3.909784396499   -1.319922797732    3.034354016909
 C    1.043173975141    2.147123904928    2.957236608490
 O    1.015593606036    3.375296989705    2.953148480062
 C   -0.029611150835    1.173430515654    2.963437806430
 N   -1.400684452604    1.359761560967    2.963362621714
 C   -1.894207947115    0.121158546922    2.953032522049
 H   -2.951705860383   -0.132988074910    2.950085877623
 H   -1.033596122863   -1.853835668174    2.938330979224
CS   -0.917837014349   -0.791914521159   -3.352759504688
