17

 N   -0.908360376778   -0.848074838614    3.040597082963
 C    0.301827690066   -0.192868634938    3.044558706931
 N    1.535240104369   -0.791546329400    3.056596991836
 C    2.505663304425    0.098629812211    3.044724534863
 N    2.302586467012    1.460267945725    3.037889374521
 H    3.106413592263    2.080228485480    2.955901352099
 N    3.831118058662   -0.320044909469    2.966377231628
 H    4.485654263994    0.211758314931    3.534018008358
 H    3.909923146053   -1.320745053404    3.127960569617
 C    1.043312724695    2.146301649256    3.050843161198
 O    1.015732355590    3.374474734033    3.046755032770
 C   -0.029472401281    1.172608259982    3.057044359138
 N   -1.400545703050    1.358939305295    3.056969174422
 C   -1.894069197561    0.120336291250    3.046639074757
 H   -2.951567110829   -0.133810330582    3.043692430331
 H   -1.033457373309   -1.854657923846    3.031937531932
CS   -0.917994705685   -0.790980012965   -3.459145016581
