17

 N   -0.908291002001   -0.848485966450    3.087400359317
 C    0.301897064843   -0.193279762774    3.091361983285
 N    1.535309479146   -0.791957457236    3.103400268190
 C    2.505732679202    0.098218684375    3.091527811217
 N    2.302655841789    1.459856817889    3.084692650875
 H    3.106482967040    2.079817357644    3.002704628453
 N    3.831187433439   -0.320456037305    3.013180507982
 H    4.485723638771    0.211347187095    3.580821284712
 H    3.909992520830   -1.321156181240    3.174763845971
 C    1.043382099472    2.145890521420    3.097646437552
 O    1.015801730367    3.374063606197    3.093558309124
 C   -0.029403026504    1.172197132146    3.103847635492
 N   -1.400476328273    1.358528177459    3.103772450776
 C   -1.893999822784    0.119925163414    3.093442351111
 H   -2.951497736052   -0.134221458418    3.090495706685
 H   -1.033387998532   -1.855069051682    3.078740808286
CS   -0.918073551353   -0.790512758868   -3.512337772528
