17

 N   -0.908152252447   -0.849308222121    3.181006912026
 C    0.302035814397   -0.194102018445    3.184968535994
 N    1.535448228700   -0.792779712907    3.197006820899
 C    2.505871428756    0.097396428704    3.185134363926
 N    2.302794591343    1.459034562218    3.178299203584
 H    3.106621716594    2.078995101973    3.096311181162
 N    3.831326182993   -0.321278292976    3.106787060691
 H    4.485862388325    0.210524931424    3.674427837421
 H    3.910131270384   -1.321978436911    3.268370398680
 C    1.043520849026    2.145068265749    3.191252990261
 O    1.015940479921    3.373241350526    3.187164861833
 C   -0.029264276950    1.171374876475    3.197454188201
 N   -1.400337578719    1.357705921788    3.197379003485
 C   -1.893861073230    0.119102907743    3.187048903820
 H   -2.951358986498   -0.135043714089    3.184102259394
 H   -1.033249248978   -1.855891307353    3.172347360995
CS   -0.918231242688   -0.789578250673   -3.618723284421
