17

 N   -0.908013502893   -0.850130477793    3.274613464734
 C    0.302174563951   -0.194924274117    3.278575088702
 N    1.535586978254   -0.793601968579    3.290613373607
 C    2.506010178310    0.096574173032    3.278740916634
 N    2.302933340897    1.458212306546    3.271905756292
 H    3.106760466148    2.078172846301    3.189917733870
 N    3.831464932547   -0.322100548648    3.200393613399
 H    4.486001137879    0.209702675752    3.768034390129
 H    3.910270019938   -1.322800692583    3.361976951388
 C    1.043659598580    2.144246010077    3.284859542969
 O    1.016079229475    3.372419094854    3.280771414541
 C   -0.029125527396    1.170552620803    3.291060740909
 N   -1.400198829165    1.356883666116    3.290985556193
 C   -1.893722323676    0.118280652071    3.280655456528
 H   -2.951220236944   -0.135865969761    3.277708812102
 H   -1.033110499424   -1.856713563025    3.265953913703
CS   -0.918388934024   -0.788643742479   -3.725108796314
