17

 N   -0.907944128116   -0.850541605629    3.321416741088
 C    0.302243938728   -0.195335401953    3.325378365056
 N    1.535656353031   -0.794013096415    3.337416649961
 C    2.506079553087    0.096163045196    3.325544192988
 N    2.303002715674    1.457801178710    3.318709032646
 H    3.106829840925    2.077761718465    3.236721010224
 N    3.831534307324   -0.322511676484    3.247196889753
 H    4.486070512656    0.209291547916    3.814837666483
 H    3.910339394715   -1.323211820419    3.408780227742
 C    1.043728973357    2.143834882241    3.331662819323
 O    1.016148604252    3.372007967018    3.327574690895
 C   -0.029056152619    1.170141492967    3.337864017263
 N   -1.400129454388    1.356472538280    3.337788832547
 C   -1.893652948899    0.117869524235    3.327458732882
 H   -2.951150862167   -0.136277097597    3.324512088456
 H   -1.033041124647   -1.857124690861    3.312757190057
CS   -0.918467779692   -0.788176488382   -3.778301552261
