17

 N   -0.907805378562   -0.851363861301    3.415023293796
 C    0.302382688282   -0.196157657625    3.418984917764
 N    1.535795102585   -0.794835352087    3.431023202669
 C    2.506218302641    0.095340789524    3.419150745696
 N    2.303141465228    1.456978923038    3.412315585354
 H    3.106968590479    2.076939462793    3.330327562932
 N    3.831673056878   -0.323333932156    3.340803442461
 H    4.486209262210    0.208469292244    3.908444219191
 H    3.910478144269   -1.324034076091    3.502386780450
 C    1.043867722911    2.143012626569    3.425269372031
 O    1.016287353806    3.371185711346    3.421181243603
 C   -0.028917403065    1.169319237295    3.431470569971
 N   -1.399990704834    1.355650282608    3.431395385255
 C   -1.893514199345    0.117047268563    3.421065285590
 H   -2.951012112613   -0.137099353269    3.418118641164
 H   -1.032902375093   -1.857946946533    3.406363742765
CS   -0.918625471027   -0.787241980187   -3.884687064154
