17

 N   -0.907597254231   -0.852597244808    3.555433122859
 C    0.302590812613   -0.197391041132    3.559394746827
 N    1.536003226916   -0.796068735594    3.571433031732
 C    2.506426426972    0.094107406017    3.559560574759
 N    2.303349589559    1.455745539531    3.552725414417
 H    3.107176714810    2.075706079286    3.470737391995
 N    3.831881181209   -0.324567315663    3.481213271524
 H    4.486417386541    0.207235908737    4.048854048254
 H    3.910686268600   -1.325267459598    3.642796609513
 C    1.044075847242    2.141779243062    3.565679201094
 O    1.016495478137    3.369952327839    3.561591072666
 C   -0.028709278734    1.168085853788    3.571880399034
 N   -1.399782580503    1.354416899101    3.571805214318
 C   -1.893306075014    0.115813885056    3.561475114653
 H   -2.950803988282   -0.138332736776    3.558528470227
 H   -1.032694250762   -1.859180330040    3.546773571828
CS   -0.918862008031   -0.785840217896   -4.044265331993
