17

 N   -0.907527879454   -0.853008372644    3.602236399213
 C    0.302660187390   -0.197802168968    3.606198023181
 N    1.536072601693   -0.796479863430    3.618236308086
 C    2.506495801749    0.093696278181    3.606363851113
 N    2.303418964336    1.455334411695    3.599528690771
 H    3.107246089587    2.075294951450    3.517540668349
 N    3.831950555986   -0.324978443499    3.528016547878
 H    4.486486761318    0.206824780901    4.095657324608
 H    3.910755643377   -1.325678587434    3.689599885867
 C    1.044145222019    2.141368115226    3.612482477448
 O    1.016564852914    3.369541200003    3.608394349020
 C   -0.028639903957    1.167674725952    3.618683675388
 N   -1.399713205726    1.354005771265    3.618608490672
 C   -1.893236700237    0.115402757220    3.608278391007
 H   -2.950734613505   -0.138743864612    3.605331746581
 H   -1.032624875985   -1.859591457876    3.593576848182
CS   -0.918940853698   -0.785372963799   -4.097458087940
