17

 N   -0.907458504678   -0.853419500480    3.649039675567
 C    0.302729562166   -0.198213296804    3.653001299535
 N    1.536141976469   -0.796890991266    3.665039584440
 C    2.506565176525    0.093285150345    3.653167127467
 N    2.303488339112    1.454923283859    3.646331967125
 H    3.107315464363    2.074883823614    3.564343944703
 N    3.832019930762   -0.325389571335    3.574819824232
 H    4.486556136094    0.206413653065    4.142460600962
 H    3.910825018153   -1.326089715270    3.736403162221
 C    1.044214596795    2.140956987390    3.659285753802
 O    1.016634227690    3.369130072167    3.655197625374
 C   -0.028570529181    1.167263598116    3.665486951742
 N   -1.399643830950    1.353594643429    3.665411767026
 C   -1.893167325461    0.114991629384    3.655081667361
 H   -2.950665238729   -0.139154992448    3.652135022935
 H   -1.032555501209   -1.860002585712    3.640380124536
CS   -0.919019699366   -0.784905709702   -4.150650843886
