17

 N   -0.907319755124   -0.854241756152    3.742646228275
 C    0.302868311720   -0.199035552476    3.746607852243
 N    1.536280726023   -0.797713246938    3.758646137148
 C    2.506703926079    0.092462894673    3.746773680175
 N    2.303627088666    1.454101028187    3.739938519833
 H    3.107454213917    2.074061567942    3.657950497411
 N    3.832158680316   -0.326211827007    3.668426376940
 H    4.486694885648    0.205591397393    4.236067153670
 H    3.910963767707   -1.326911970942    3.830009714929
 C    1.044353346349    2.140134731718    3.752892306510
 O    1.016772977244    3.368307816495    3.748804178082
 C   -0.028431779627    1.166441342444    3.759093504450
 N   -1.399505081396    1.352772387757    3.759018319734
 C   -1.893028575907    0.114169373712    3.748688220069
 H   -2.950526489175   -0.139977248120    3.745741575643
 H   -1.032416751655   -1.860824841384    3.733986677244
CS   -0.919177390702   -0.783971201507   -4.257036355780
