17

 N   -0.907181005570   -0.855064011824    3.836252780983
 C    0.303007061274   -0.199857808148    3.840214404951
 N    1.536419475577   -0.798535502610    3.852252689856
 C    2.506842675633    0.091640639001    3.840380232883
 N    2.303765838220    1.453278772515    3.833545072541
 H    3.107592963471    2.073239312270    3.751557050119
 N    3.832297429870   -0.327034082679    3.762032929648
 H    4.486833635202    0.204769141721    4.329673706378
 H    3.911102517261   -1.327734226614    3.923616267637
 C    1.044492095903    2.139312476046    3.846498859218
 O    1.016911726798    3.367485560823    3.842410730790
 C   -0.028293030073    1.165619086772    3.852700057158
 N   -1.399366331842    1.351950132085    3.852624872442
 C   -1.892889826353    0.113347118040    3.842294772777
 H   -2.950387739621   -0.140799503792    3.839348128351
 H   -1.032278002101   -1.861647097056    3.827593229952
CS   -0.919335082037   -0.783036693313   -4.363421867673
