17

 N   -0.906764756908   -0.857530778839    4.117072439108
 C    0.303423309936   -0.202324575163    4.121034063076
 N    1.536835724239   -0.801002269625    4.133072347981
 C    2.507258924295    0.089173871986    4.121199891008
 N    2.304182086882    1.450812005500    4.114364730666
 H    3.108009212133    2.070772545255    4.032376708244
 N    3.832713678532   -0.329500849694    4.042852587773
 H    4.487249883864    0.202302374706    4.610493364503
 H    3.911518765923   -1.330200993629    4.204435925762
 C    1.044908344565    2.136845709031    4.127318517343
 O    1.017327975460    3.365018793808    4.123230388915
 C   -0.027876781411    1.163152319757    4.133519715283
 N   -1.398950083180    1.349483365070    4.133444530567
 C   -1.892473577691    0.110880351025    4.123114430902
 H   -2.949971490959   -0.143266270807    4.120167786476
 H   -1.031861753439   -1.864113864071    4.108412888077
CS   -0.919808156044   -0.780233168730   -4.682578403352
