17

 N   -0.906626007354   -0.858353034511    4.210678991816
 C    0.303562059490   -0.203146830835    4.214640615784
 N    1.536974473793   -0.801824525297    4.226678900689
 C    2.507397673849    0.088351616314    4.214806443716
 N    2.304320836436    1.449989749828    4.207971283374
 H    3.108147961687    2.069950289583    4.125983260952
 N    3.832852428086   -0.330323105366    4.136459140481
 H    4.487388633418    0.201480119034    4.704099917211
 H    3.911657515477   -1.331023249301    4.298042478470
 C    1.045047094119    2.136023453359    4.220925070051
 O    1.017466725014    3.364196538136    4.216836941623
 C   -0.027738031857    1.162330064085    4.227126267991
 N   -1.398811333626    1.348661109398    4.227051083275
 C   -1.892334828137    0.110058095353    4.216720983610
 H   -2.949832741405   -0.144088526479    4.213774339184
 H   -1.031723003885   -1.864936119743    4.202019440785
CS   -0.919965847380   -0.779298660536   -4.788963915245
