17

 N   -0.906556632577   -0.858764162347    4.257482268170
 C    0.303631434267   -0.203557958671    4.261443892138
 N    1.537043848570   -0.802235653133    4.273482177043
 C    2.507467048626    0.087940488478    4.261609720070
 N    2.304390211213    1.449578621992    4.254774559728
 H    3.108217336464    2.069539161747    4.172786537306
 N    3.832921802863   -0.330734233202    4.183262416835
 H    4.487458008195    0.201068991198    4.750903193565
 H    3.911726890254   -1.331434377137    4.344845754824
 C    1.045116468896    2.135612325523    4.267728346405
 O    1.017536099791    3.363785410300    4.263640217977
 C   -0.027668657080    1.161918936249    4.273929544345
 N   -1.398741958849    1.348249981562    4.273854359629
 C   -1.892265453360    0.109646967517    4.263524259964
 H   -2.949763366628   -0.144499654315    4.260577615538
 H   -1.031653629108   -1.865347247579    4.248822717139
CS   -0.920044693047   -0.778831406438   -4.842156671192
