17

 N   -0.906417883023   -0.859586418019    4.351088820879
 C    0.303770183821   -0.204380214343    4.355050444847
 N    1.537182598124   -0.803057908805    4.367088729752
 C    2.507605798180    0.087118232806    4.355216272779
 N    2.304528960767    1.448756366320    4.348381112437
 H    3.108356086018    2.068716906075    4.266393090015
 N    3.833060552417   -0.331556488874    4.276868969544
 H    4.487596757749    0.200246735526    4.844509746274
 H    3.911865639808   -1.332256632809    4.438452307533
 C    1.045255218450    2.134790069851    4.361334899114
 O    1.017674849345    3.362963154628    4.357246770686
 C   -0.027529907526    1.161096680577    4.367536097054
 N   -1.398603209295    1.347427725890    4.367460912338
 C   -1.892126703806    0.108824711845    4.357130812673
 H   -2.949624617074   -0.145321909987    4.354184168247
 H   -1.031514879554   -1.866169503251    4.342429269848
CS   -0.920202384383   -0.777896898244   -4.948542183085
