17

 N   -0.906348508246   -0.859997545855    4.397892097233
 C    0.303839558598   -0.204791342179    4.401853721201
 N    1.537251972901   -0.803469036641    4.413892006106
 C    2.507675172957    0.086707104970    4.402019549133
 N    2.304598335544    1.448345238484    4.395184388791
 H    3.108425460795    2.068305778239    4.313196366369
 N    3.833129927194   -0.331967616710    4.323672245898
 H    4.487666132526    0.199835607690    4.891313022628
 H    3.911935014585   -1.332667760645    4.485255583887
 C    1.045324593227    2.134378942015    4.408138175468
 O    1.017744224122    3.362552026792    4.404050047040
 C   -0.027460532749    1.160685552741    4.414339373408
 N   -1.398533834518    1.347016598054    4.414264188692
 C   -1.892057329029    0.108413584009    4.403934089027
 H   -2.949555242297   -0.145733037823    4.400987444601
 H   -1.031445504777   -1.866580631087    4.389232546202
CS   -0.920281230051   -0.777429644147   -5.001734939032
