17

 N   -0.906279133470   -0.860408673690    4.444695373587
 C    0.303908933374   -0.205202470014    4.448656997555
 N    1.537321347677   -0.803880164476    4.460695282460
 C    2.507744547733    0.086295977135    4.448822825487
 N    2.304667710320    1.447934110649    4.441987665145
 H    3.108494835571    2.067894650404    4.359999642723
 N    3.833199301970   -0.332378744545    4.370475522252
 H    4.487735507302    0.199424479855    4.938116298982
 H    3.912004389361   -1.333078888480    4.532058860241
 C    1.045393968003    2.133967814180    4.454941451822
 O    1.017813598898    3.362140898957    4.450853323394
 C   -0.027391157973    1.160274424906    4.461142649762
 N   -1.398464459742    1.346605470219    4.461067465046
 C   -1.891987954253    0.108002456174    4.450737365381
 H   -2.949485867521   -0.146144165658    4.447790720955
 H   -1.031376130001   -1.866991758922    4.436035822556
CS   -0.920360075719   -0.776962390050   -5.054927694978
