17

 N   -0.906001634362   -0.862053185034    4.631908479003
 C    0.304186432482   -0.206846981358    4.635870102971
 N    1.537598846785   -0.805524675820    4.647908387876
 C    2.508022046841    0.084651465791    4.636035930903
 N    2.304945209428    1.446289599305    4.629200770561
 H    3.108772334679    2.066250139060    4.547212748139
 N    3.833476801078   -0.334023255889    4.557688627668
 H    4.488013006410    0.197779968511    5.125329404398
 H    3.912281888469   -1.334723399824    4.719271965657
 C    1.045671467111    2.132323302836    4.642154557238
 O    1.018091098006    3.360496387613    4.638066428810
 C   -0.027113658865    1.158629913562    4.648355755178
 N   -1.398186960634    1.344960958875    4.648280570462
 C   -1.891710455145    0.106357944830    4.637950470797
 H   -2.949208368413   -0.147788677002    4.635003826371
 H   -1.031098630893   -1.868636270266    4.623248927972
CS   -0.920675458390   -0.775093373661   -5.267698718764
