7

 H   -3.215119588007    2.231916464626    0.000000000000
 H   -1.675560588007    2.322895464626    0.902247000000
 H   -1.675560588007    2.322895464626   -0.902247000000
 C   -2.159371588007    1.926375464626    0.000000000000
 S   -2.159371588007    0.093649464626    0.000000000000
 H   -0.818788588007   -0.062741535374    0.000000000000
CS    0.770433846721   -0.248138549799    0.000000000000
