7

 H   -3.288090160331    2.240429134693    0.000000000000
 H   -1.748531160331    2.331408134693    0.902247000000
 H   -1.748531160331    2.331408134693   -0.902247000000
 C   -2.232342160331    1.934888134693    0.000000000000
 S   -2.232342160331    0.102162134693    0.000000000000
 H   -0.891759160331   -0.054228865307    0.000000000000
CS    0.796789676567   -0.251213193134    0.000000000000
