7

 H   -3.361060732655    2.248941804760    0.000000000000
 H   -1.821501732655    2.339920804760    0.902247000000
 H   -1.821501732655    2.339920804760   -0.902247000000
 C   -2.305312732655    1.943400804760    0.000000000000
 S   -2.305312732655    0.110674804760    0.000000000000
 H   -0.964729732655   -0.045716195240    0.000000000000
CS    0.823145506413   -0.254287836468    0.000000000000
