7

 H   -3.434031304980    2.257454474827    0.000000000000
 H   -1.894472304980    2.348433474827    0.902247000000
 H   -1.894472304980    2.348433474827   -0.902247000000
 C   -2.378283304980    1.951913474827    0.000000000000
 S   -2.378283304980    0.119187474827    0.000000000000
 H   -1.037700304980   -0.037203525173    0.000000000000
CS    0.849501336259   -0.257362479803    0.000000000000
