7

 H   -9.344647663255    2.946980750252    0.000000000000
 H   -7.805088663255    3.037959750252    0.902247000000
 H   -7.805088663255    3.037959750252   -0.902247000000
 C   -8.288899663255    2.641439750252    0.000000000000
 S   -8.288899663255    0.808713750252    0.000000000000
 H   -6.948316663255    0.652322750252    0.000000000000
CS    2.984323553794   -0.506408589908    0.000000000000
