7

 H   -3.725913594277    2.291505155095    0.000000000000
 H   -2.186354594277    2.382484155095    0.902247000000
 H   -2.186354594277    2.382484155095   -0.902247000000
 C   -2.670165594277    1.985964155095    0.000000000000
 S   -2.670165594277    0.153238155095    0.000000000000
 H   -1.329582594277   -0.003152844905    0.000000000000
CS    0.954924655644   -0.269661053141    0.000000000000
