7

 H   -3.871854738926    2.308530495229    0.000000000000
 H   -2.332295738926    2.399509495229    0.902247000000
 H   -2.332295738926    2.399509495229   -0.902247000000
 C   -2.816106738926    2.002989495229    0.000000000000
 S   -2.816106738926    0.170263495229    0.000000000000
 H   -1.475523738926    0.013872495229    0.000000000000
CS    1.007636315336   -0.275810339811    0.000000000000
