7

 H   -3.944825311250    2.317043165296    0.000000000000
 H   -2.405266311250    2.408022165296    0.902247000000
 H   -2.405266311250    2.408022165296   -0.902247000000
 C   -2.889077311250    2.011502165296    0.000000000000
 S   -2.889077311250    0.178776165296    0.000000000000
 H   -1.548494311250    0.022385165296    0.000000000000
CS    1.033992145182   -0.278884983145    0.000000000000
