7

 H   -4.017795883575    2.325555835363    0.000000000000
 H   -2.478236883575    2.416534835363    0.902247000000
 H   -2.478236883575    2.416534835363   -0.902247000000
 C   -2.962047883575    2.020014835363    0.000000000000
 S   -2.962047883575    0.187288835363    0.000000000000
 H   -1.621464883575    0.030897835363    0.000000000000
CS    1.060347975028   -0.281959626480    0.000000000000
