7

 H   -4.090766455899    2.334068505430    0.000000000000
 H   -2.551207455899    2.425047505430    0.902247000000
 H   -2.551207455899    2.425047505430   -0.902247000000
 C   -3.035018455899    2.028527505430    0.000000000000
 S   -3.035018455899    0.195801505430    0.000000000000
 H   -1.694435455899    0.039410505430    0.000000000000
CS    1.086703804874   -0.285034269815    0.000000000000
