7

 H   -4.236707600548    2.351093845564    0.000000000000
 H   -2.697148600548    2.442072845564    0.902247000000
 H   -2.697148600548    2.442072845564   -0.902247000000
 C   -3.180959600548    2.045552845564    0.000000000000
 S   -3.180959600548    0.212826845564    0.000000000000
 H   -1.840376600548    0.056435845564    0.000000000000
CS    1.139415464567   -0.291183556484    0.000000000000
