7

 H   -4.601560462170    2.393657195899    0.000000000000
 H   -3.062001462170    2.484636195899    0.902247000000
 H   -3.062001462170    2.484636195899   -0.902247000000
 C   -3.545812462170    2.088116195899    0.000000000000
 S   -3.545812462170    0.255390195899    0.000000000000
 H   -2.205229462170    0.098999195899    0.000000000000
CS    1.271194613797   -0.306556773157    0.000000000000
