7

 H   -5.185325040765    2.461758556434    0.000000000000
 H   -3.645766040765    2.552737556434    0.902247000000
 H   -3.645766040765    2.552737556434   -0.902247000000
 C   -4.129577040765    2.156217556434    0.000000000000
 S   -4.129577040765    0.323491556434    0.000000000000
 H   -2.788994040765    0.167100556434    0.000000000000
CS    1.482041252566   -0.331153919834    0.000000000000
