7

 H   -5.258295613089    2.470271226501    0.000000000000
 H   -3.718736613089    2.561250226501    0.902247000000
 H   -3.718736613089    2.561250226501   -0.902247000000
 C   -4.202547613089    2.164730226501    0.000000000000
 S   -4.202547613089    0.332004226501    0.000000000000
 H   -2.861964613089    0.175613226501    0.000000000000
CS    1.508397082412   -0.334228563169    0.000000000000
