7

 H   -5.404236757738    2.487296566635    0.000000000000
 H   -3.864677757738    2.578275566635    0.902247000000
 H   -3.864677757738    2.578275566635   -0.902247000000
 C   -4.348488757738    2.181755566635    0.000000000000
 S   -4.348488757738    0.349029566635    0.000000000000
 H   -3.007905757738    0.192638566635    0.000000000000
CS    1.561108742104   -0.340377849838    0.000000000000
