7

 H   -5.477207330063    2.495809236702    0.000000000000
 H   -3.937648330063    2.586788236702    0.902247000000
 H   -3.937648330063    2.586788236702   -0.902247000000
 C   -4.421459330063    2.190268236702    0.000000000000
 S   -4.421459330063    0.357542236702    0.000000000000
 H   -3.080876330063    0.201151236702    0.000000000000
CS    1.587464571950   -0.343452493172    0.000000000000
