7

 H   -5.623148474711    2.512834576836    0.000000000000
 H   -4.083589474711    2.603813576836    0.902247000000
 H   -4.083589474711    2.603813576836   -0.902247000000
 C   -4.567400474711    2.207293576836    0.000000000000
 S   -4.567400474711    0.374567576836    0.000000000000
 H   -3.226817474711    0.218176576836    0.000000000000
CS    1.640176231643   -0.349601779842    0.000000000000
