7

 H   -5.769089619360    2.529859916970    0.000000000000
 H   -4.229530619360    2.620838916970    0.902247000000
 H   -4.229530619360    2.620838916970   -0.902247000000
 C   -4.713341619360    2.224318916970    0.000000000000
 S   -4.713341619360    0.391592916970    0.000000000000
 H   -3.372758619360    0.235201916970    0.000000000000
CS    1.692887891335   -0.355751066511    0.000000000000
