7

 H   -5.915030764009    2.546885257104    0.000000000000
 H   -4.375471764009    2.637864257104    0.902247000000
 H   -4.375471764009    2.637864257104   -0.902247000000
 C   -4.859282764009    2.241344257104    0.000000000000
 S   -4.859282764009    0.408618257104    0.000000000000
 H   -3.518699764009    0.252227257104    0.000000000000
CS    1.745599551027   -0.361900353180    0.000000000000
