7

 H   -5.988001336333    2.555397927171    0.000000000000
 H   -4.448442336333    2.646376927171    0.902247000000
 H   -4.448442336333    2.646376927171   -0.902247000000
 C   -4.932253336333    2.249856927171    0.000000000000
 S   -4.932253336333    0.417130927171    0.000000000000
 H   -3.591670336333    0.260739927171    0.000000000000
CS    1.771955380873   -0.364974996515    0.000000000000
