7

 H   -6.571765914928    2.623499287707    0.000000000000
 H   -5.032206914928    2.714478287707    0.902247000000
 H   -5.032206914928    2.714478287707   -0.902247000000
 C   -5.516017914928    2.317958287707    0.000000000000
 S   -5.516017914928    0.485232287707    0.000000000000
 H   -4.175434914928    0.328841287707    0.000000000000
CS    1.982802019642   -0.389572143192    0.000000000000
