7

 H   -6.790677631902    2.649037297908    0.000000000000
 H   -5.251118631902    2.740016297908    0.902247000000
 H   -5.251118631902    2.740016297908   -0.902247000000
 C   -5.734929631902    2.343496297908    0.000000000000
 S   -5.734929631902    0.510770297908    0.000000000000
 H   -4.394346631902    0.354379297908    0.000000000000
CS    2.061869509180   -0.398796073196    0.000000000000
