7

 H   -6.863648204226    2.657549967975    0.000000000000
 H   -5.324089204226    2.748528967975    0.902247000000
 H   -5.324089204226    2.748528967975   -0.902247000000
 C   -5.807900204226    2.352008967975    0.000000000000
 S   -5.807900204226    0.519282967975    0.000000000000
 H   -4.467317204226    0.362891967975    0.000000000000
CS    2.088225339026   -0.401870716530    0.000000000000
