7

 H   -6.936618776550    2.666062638042    0.000000000000
 H   -5.397059776550    2.757041638042    0.902247000000
 H   -5.397059776550    2.757041638042   -0.902247000000
 C   -5.880870776550    2.360521638042    0.000000000000
 S   -5.880870776550    0.527795638042    0.000000000000
 H   -4.540287776550    0.371404638042    0.000000000000
CS    2.114581168872   -0.404945359865    0.000000000000
