7

 H   -7.009589348875    2.674575308109    0.000000000000
 H   -5.470030348875    2.765554308109    0.902247000000
 H   -5.470030348875    2.765554308109   -0.902247000000
 C   -5.953841348875    2.369034308109    0.000000000000
 S   -5.953841348875    0.536308308109    0.000000000000
 H   -4.613258348875    0.379917308109    0.000000000000
CS    2.140936998718   -0.408020003200    0.000000000000
