7

 H   -7.082559921199    2.683087978176    0.000000000000
 H   -5.543000921199    2.774066978176    0.902247000000
 H   -5.543000921199    2.774066978176   -0.902247000000
 C   -6.026811921199    2.377546978176    0.000000000000
 S   -6.026811921199    0.544820978176    0.000000000000
 H   -4.686228921199    0.388429978176    0.000000000000
CS    2.167292828565   -0.411094646534    0.000000000000
