7

 H   -7.155530493523    2.691600648243    0.000000000000
 H   -5.615971493523    2.782579648243    0.902247000000
 H   -5.615971493523    2.782579648243   -0.902247000000
 C   -6.099782493523    2.386059648243    0.000000000000
 S   -6.099782493523    0.553333648243    0.000000000000
 H   -4.759199493523    0.396942648243    0.000000000000
CS    2.193648658411   -0.414169289869    0.000000000000
