7

 H   -7.301471638172    2.708625988376    0.000000000000
 H   -5.761912638172    2.799604988376    0.902247000000
 H   -5.761912638172    2.799604988376   -0.902247000000
 C   -6.245723638172    2.403084988376    0.000000000000
 S   -6.245723638172    0.570358988376    0.000000000000
 H   -4.905140638172    0.413967988376    0.000000000000
CS    2.246360318103   -0.420318576538    0.000000000000
