7

 H   -7.374442210497    2.717138658443    0.000000000000
 H   -5.834883210497    2.808117658443    0.902247000000
 H   -5.834883210497    2.808117658443   -0.902247000000
 C   -6.318694210497    2.411597658443    0.000000000000
 S   -6.318694210497    0.578871658443    0.000000000000
 H   -4.978111210497    0.422480658443    0.000000000000
CS    2.272716147949   -0.423393219873    0.000000000000
