7

 H   -7.593353927470    2.742676668644    0.000000000000
 H   -6.053794927470    2.833655668644    0.902247000000
 H   -6.053794927470    2.833655668644   -0.902247000000
 C   -6.537605927470    2.437135668644    0.000000000000
 S   -6.537605927470    0.604409668644    0.000000000000
 H   -5.197022927470    0.448018668644    0.000000000000
CS    2.351783637487   -0.432617149877    0.000000000000
