7

 H   -7.885236216767    2.776727348912    0.000000000000
 H   -6.345677216767    2.867706348912    0.902247000000
 H   -6.345677216767    2.867706348912   -0.902247000000
 C   -6.829488216767    2.471186348912    0.000000000000
 S   -6.829488216767    0.638460348912    0.000000000000
 H   -5.488905216767    0.482069348912    0.000000000000
CS    2.457206956872   -0.444915723215    0.000000000000
