7

 H   -8.250089078389    2.819290699247    0.000000000000
 H   -6.710530078389    2.910269699247    0.902247000000
 H   -6.710530078389    2.910269699247   -0.902247000000
 C   -7.194341078389    2.513749699247    0.000000000000
 S   -7.194341078389    0.681023699247    0.000000000000
 H   -5.853758078389    0.524632699247    0.000000000000
CS    2.588986106102   -0.460288939888    0.000000000000
