7

 H   -8.469000795362    2.844828709448    0.000000000000
 H   -6.929441795362    2.935807709448    0.902247000000
 H   -6.929441795362    2.935807709448   -0.902247000000
 C   -7.413252795362    2.539287709448    0.000000000000
 S   -7.413252795362    0.706561709448    0.000000000000
 H   -6.072669795362    0.550170709448    0.000000000000
CS    2.668053595640   -0.469512869892    0.000000000000
