7

 H   -8.541971367687    2.853341379515    0.000000000000
 H   -7.002412367687    2.944320379515    0.902247000000
 H   -7.002412367687    2.944320379515   -0.902247000000
 C   -7.486223367687    2.547800379515    0.000000000000
 S   -7.486223367687    0.715074379515    0.000000000000
 H   -6.145640367687    0.558683379515    0.000000000000
CS    2.694409425487   -0.472587513227    0.000000000000
