7

 H   -8.687912512336    2.870366719649    0.000000000000
 H   -7.148353512336    2.961345719649    0.902247000000
 H   -7.148353512336    2.961345719649   -0.902247000000
 C   -7.632164512336    2.564825719649    0.000000000000
 S   -7.632164512336    0.732099719649    0.000000000000
 H   -6.291581512336    0.575708719649    0.000000000000
CS    2.747121085179   -0.478736799896    0.000000000000
