7

 H   -8.760883084660    2.878879389716    0.000000000000
 H   -7.221324084660    2.969858389716    0.902247000000
 H   -7.221324084660    2.969858389716   -0.902247000000
 C   -7.705135084660    2.573338389716    0.000000000000
 S   -7.705135084660    0.740612389716    0.000000000000
 H   -6.364552084660    0.584221389716    0.000000000000
CS    2.773476915025   -0.481811443231    0.000000000000
