7

 H   -8.979794801633    2.904417399917    0.000000000000
 H   -7.440235801633    2.995396399917    0.902247000000
 H   -7.440235801633    2.995396399917   -0.902247000000
 C   -7.924046801633    2.598876399917    0.000000000000
 S   -7.924046801633    0.766150399917    0.000000000000
 H   -6.583463801633    0.609759399917    0.000000000000
CS    2.852544404563   -0.491035373234    0.000000000000
