8

 C    0.731028383318   -1.806775311029   -0.884958147337
 H    1.766528383318   -2.182863311029   -0.884958147337
 H    0.197828383318   -2.187478311029    0.003378852663
 H    0.197828383318   -2.187478311029   -1.773295147337
 C    0.689262383318   -0.250691311029   -0.884958147337
 O   -0.477933616682    0.255531688971   -0.884958147337
 O    1.813333383318    0.344726688971   -0.884958147337
RB   -0.477933616682    0.255531688971    0.615041852663
