8

 C    0.731028383318   -1.806775311029   -0.943955357160
 H    1.766528383318   -2.182863311029   -0.943955357160
 H    0.197828383318   -2.187478311029   -0.055618357160
 H    0.197828383318   -2.187478311029   -1.832292357160
 C    0.689262383318   -0.250691311029   -0.943955357160
 O   -0.477933616682    0.255531688971   -0.943955357160
 O    1.813333383318    0.344726688971   -0.943955357160
RB   -0.477933616682    0.255531688971    0.656044642840
