8

 C    0.731028383318   -1.806775311029   -1.061949776805
 H    1.766528383318   -2.182863311029   -1.061949776805
 H    0.197828383318   -2.187478311029   -0.173612776805
 H    0.197828383318   -2.187478311029   -1.950286776805
 C    0.689262383318   -0.250691311029   -1.061949776805
 O   -0.477933616682    0.255531688971   -1.061949776805
 O    1.813333383318    0.344726688971   -1.061949776805
RB   -0.477933616682    0.255531688971    0.738050223195
