8

 C    0.731028383318   -1.806775311029   -1.592924665207
 H    1.766528383318   -2.182863311029   -1.592924665207
 H    0.197828383318   -2.187478311029   -0.704587665207
 H    0.197828383318   -2.187478311029   -2.481261665207
 C    0.689262383318   -0.250691311029   -1.592924665207
 O   -0.477933616682    0.255531688971   -1.592924665207
 O    1.813333383318    0.344726688971   -1.592924665207
RB   -0.477933616682    0.255531688971    1.107075334793
