8

 C    0.731028383318   -1.806775311029   -1.710919084852
 H    1.766528383318   -2.182863311029   -1.710919084852
 H    0.197828383318   -2.187478311029   -0.822582084852
 H    0.197828383318   -2.187478311029   -2.599256084852
 C    0.689262383318   -0.250691311029   -1.710919084852
 O   -0.477933616682    0.255531688971   -1.710919084852
 O    1.813333383318    0.344726688971   -1.710919084852
RB   -0.477933616682    0.255531688971    1.189080915148
