8

 C    0.731028383318   -1.806775311029   -2.300891183077
 H    1.766528383318   -2.182863311029   -2.300891183077
 H    0.197828383318   -2.187478311029   -1.412554183077
 H    0.197828383318   -2.187478311029   -3.189228183077
 C    0.689262383318   -0.250691311029   -2.300891183077
 O   -0.477933616682    0.255531688971   -2.300891183077
 O    1.813333383318    0.344726688971   -2.300891183077
RB   -0.477933616682    0.255531688971    1.599108816923
