8

 C    0.731028383318   -1.806775311029   -2.536880022367
 H    1.766528383318   -2.182863311029   -2.536880022367
 H    0.197828383318   -2.187478311029   -1.648543022367
 H    0.197828383318   -2.187478311029   -3.425217022367
 C    0.689262383318   -0.250691311029   -2.536880022367
 O   -0.477933616682    0.255531688971   -2.536880022367
 O    1.813333383318    0.344726688971   -2.536880022367
RB   -0.477933616682    0.255531688971    1.763119977633
