8

 C    0.731028383318   -1.806775311029   -2.654874442012
 H    1.766528383318   -2.182863311029   -2.654874442012
 H    0.197828383318   -2.187478311029   -1.766537442012
 H    0.197828383318   -2.187478311029   -3.543211442012
 C    0.689262383318   -0.250691311029   -2.654874442012
 O   -0.477933616682    0.255531688971   -2.654874442012
 O    1.813333383318    0.344726688971   -2.654874442012
RB   -0.477933616682    0.255531688971    1.845125557988
