8

 C    0.731028383318   -1.806775311029   -2.713871651835
 H    1.766528383318   -2.182863311029   -2.713871651835
 H    0.197828383318   -2.187478311029   -1.825534651835
 H    0.197828383318   -2.187478311029   -3.602208651835
 C    0.689262383318   -0.250691311029   -2.713871651835
 O   -0.477933616682    0.255531688971   -2.713871651835
 O    1.813333383318    0.344726688971   -2.713871651835
RB   -0.477933616682    0.255531688971    1.886128348165
