8

 C    0.731028383318   -1.806775311029   -3.244846540237
 H    1.766528383318   -2.182863311029   -3.244846540237
 H    0.197828383318   -2.187478311029   -2.356509540237
 H    0.197828383318   -2.187478311029   -4.133183540237
 C    0.689262383318   -0.250691311029   -3.244846540237
 O   -0.477933616682    0.255531688971   -3.244846540237
 O    1.813333383318    0.344726688971   -3.244846540237
RB   -0.477933616682    0.255531688971    2.255153459763
