8

 C    0.731028383318   -1.806775311029   -3.480835379527
 H    1.766528383318   -2.182863311029   -3.480835379527
 H    0.197828383318   -2.187478311029   -2.592498379527
 H    0.197828383318   -2.187478311029   -4.369172379527
 C    0.689262383318   -0.250691311029   -3.480835379527
 O   -0.477933616682    0.255531688971   -3.480835379527
 O    1.813333383318    0.344726688971   -3.480835379527
RB   -0.477933616682    0.255531688971    2.419164620473
