8

 C    0.731028383318   -1.806775311029   -4.306796317042
 H    1.766528383318   -2.182863311029   -4.306796317042
 H    0.197828383318   -2.187478311029   -3.418459317042
 H    0.197828383318   -2.187478311029   -5.195133317042
 C    0.689262383318   -0.250691311029   -4.306796317042
 O   -0.477933616682    0.255531688971   -4.306796317042
 O    1.813333383318    0.344726688971   -4.306796317042
RB   -0.477933616682    0.255531688971    2.993203682958
