8

 C    0.731028383318   -1.806775311029   -4.542785156332
 H    1.766528383318   -2.182863311029   -4.542785156332
 H    0.197828383318   -2.187478311029   -3.654448156332
 H    0.197828383318   -2.187478311029   -5.431122156332
 C    0.689262383318   -0.250691311029   -4.542785156332
 O   -0.477933616682    0.255531688971   -4.542785156332
 O    1.813333383318    0.344726688971   -4.542785156332
RB   -0.477933616682    0.255531688971    3.157214843668
