8

 C    0.731028383318   -1.806775311029   -5.014762834912
 H    1.766528383318   -2.182863311029   -5.014762834912
 H    0.197828383318   -2.187478311029   -4.126425834912
 H    0.197828383318   -2.187478311029   -5.903099834912
 C    0.689262383318   -0.250691311029   -5.014762834912
 O   -0.477933616682    0.255531688971   -5.014762834912
 O    1.813333383318    0.344726688971   -5.014762834912
RB   -0.477933616682    0.255531688971    3.485237165088
