8

 C    0.731028383318   -1.806775311029   -5.191754464379
 H    1.766528383318   -2.182863311029   -5.191754464379
 H    0.197828383318   -2.187478311029   -4.303417464379
 H    0.197828383318   -2.187478311029   -6.080091464379
 C    0.689262383318   -0.250691311029   -5.191754464379
 O   -0.477933616682    0.255531688971   -5.191754464379
 O    1.813333383318    0.344726688971   -5.191754464379
RB   -0.477933616682    0.255531688971    3.608245535621
