8

 C    0.731028383318   -1.806775311029   -5.486740513492
 H    1.766528383318   -2.182863311029   -5.486740513492
 H    0.197828383318   -2.187478311029   -4.598403513492
 H    0.197828383318   -2.187478311029   -6.375077513492
 C    0.689262383318   -0.250691311029   -5.486740513492
 O   -0.477933616682    0.255531688971   -5.486740513492
 O    1.813333383318    0.344726688971   -5.486740513492
RB   -0.477933616682    0.255531688971    3.813259486508
