8

 C    0.731028383318   -1.806775311029   -5.663732142959
 H    1.766528383318   -2.182863311029   -5.663732142959
 H    0.197828383318   -2.187478311029   -4.775395142959
 H    0.197828383318   -2.187478311029   -6.552069142959
 C    0.689262383318   -0.250691311029   -5.663732142959
 O   -0.477933616682    0.255531688971   -5.663732142959
 O    1.813333383318    0.344726688971   -5.663732142959
RB   -0.477933616682    0.255531688971    3.936267857041
