9

 C   -0.984629566540   -1.846582554636    6.888913442897
 H   -1.963556566540   -1.354794554636    6.888913442897
 H   -0.877483566540   -2.486391554636    7.777185442897
 H   -0.877483566540   -2.486391554636    6.000641442897
 C    0.099997433460   -0.800998554636    6.888913442897
 O   -0.061106566540    0.408552445364    6.888913442897
 O    1.342283433460   -1.378006554636    6.888913442897
 H    1.976819433460   -0.639443554636    6.888913442897
CS   -0.061106566540    0.408552445364   -3.111086557103
