9

 C   -0.984629566540   -1.846582554636    1.791117495153
 H   -1.963556566540   -1.354794554636    1.791117495153
 H   -0.877483566540   -2.486391554636    2.679389495153
 H   -0.877483566540   -2.486391554636    0.902845495153
 C    0.099997433460   -0.800998554636    1.791117495153
 O   -0.061106566540    0.408552445364    1.791117495153
 O    1.342283433460   -1.378006554636    1.791117495153
 H    1.976819433460   -0.639443554636    1.791117495153
CS   -0.061106566540    0.408552445364   -0.808882504847
