9

 C   -0.984629566540   -1.846582554636    2.204452301727
 H   -1.963556566540   -1.354794554636    2.204452301727
 H   -0.877483566540   -2.486391554636    3.092724301727
 H   -0.877483566540   -2.486391554636    1.316180301727
 C    0.099997433460   -0.800998554636    2.204452301727
 O   -0.061106566540    0.408552445364    2.204452301727
 O    1.342283433460   -1.378006554636    2.204452301727
 H    1.976819433460   -0.639443554636    2.204452301727
CS   -0.061106566540    0.408552445364   -0.995547698273
