9

 C   -0.984629566540   -1.846582554636    3.375567587020
 H   -1.963556566540   -1.354794554636    3.375567587020
 H   -0.877483566540   -2.486391554636    4.263839587020
 H   -0.877483566540   -2.486391554636    2.487295587020
 C    0.099997433460   -0.800998554636    3.375567587020
 O   -0.061106566540    0.408552445364    3.375567587020
 O    1.342283433460   -1.378006554636    3.375567587020
 H    1.976819433460   -0.639443554636    3.375567587020
CS   -0.061106566540    0.408552445364   -1.524432412980
