9

 C   -0.984629566540   -1.846582554636    3.513345855878
 H   -1.963556566540   -1.354794554636    3.513345855878
 H   -0.877483566540   -2.486391554636    4.401617855878
 H   -0.877483566540   -2.486391554636    2.625073855878
 C    0.099997433460   -0.800998554636    3.513345855878
 O   -0.061106566540    0.408552445364    3.513345855878
 O    1.342283433460   -1.378006554636    3.513345855878
 H    1.976819433460   -0.639443554636    3.513345855878
CS   -0.061106566540    0.408552445364   -1.586654144122
