9

 C   -0.984629566540   -1.846582554636    3.582234990307
 H   -1.963556566540   -1.354794554636    3.582234990307
 H   -0.877483566540   -2.486391554636    4.470506990307
 H   -0.877483566540   -2.486391554636    2.693962990307
 C    0.099997433460   -0.800998554636    3.582234990307
 O   -0.061106566540    0.408552445364    3.582234990307
 O    1.342283433460   -1.378006554636    3.582234990307
 H    1.976819433460   -0.639443554636    3.582234990307
CS   -0.061106566540    0.408552445364   -1.617765009693
