9

 C   -0.984629566540   -1.846582554636    4.133348065738
 H   -1.963556566540   -1.354794554636    4.133348065738
 H   -0.877483566540   -2.486391554636    5.021620065738
 H   -0.877483566540   -2.486391554636    3.245076065738
 C    0.099997433460   -0.800998554636    4.133348065738
 O   -0.061106566540    0.408552445364    4.133348065738
 O    1.342283433460   -1.378006554636    4.133348065738
 H    1.976819433460   -0.639443554636    4.133348065738
CS   -0.061106566540    0.408552445364   -1.866651934262
