9

 C   -0.984629566540   -1.846582554636    4.546682872312
 H   -1.963556566540   -1.354794554636    4.546682872312
 H   -0.877483566540   -2.486391554636    5.434954872312
 H   -0.877483566540   -2.486391554636    3.658410872312
 C    0.099997433460   -0.800998554636    4.546682872312
 O   -0.061106566540    0.408552445364    4.546682872312
 O    1.342283433460   -1.378006554636    4.546682872312
 H    1.976819433460   -0.639443554636    4.546682872312
CS   -0.061106566540    0.408552445364   -2.053317127688
