9

 C   -0.984629566540   -1.846582554636    4.960017678886
 H   -1.963556566540   -1.354794554636    4.960017678886
 H   -0.877483566540   -2.486391554636    5.848289678886
 H   -0.877483566540   -2.486391554636    4.071745678886
 C    0.099997433460   -0.800998554636    4.960017678886
 O   -0.061106566540    0.408552445364    4.960017678886
 O    1.342283433460   -1.378006554636    4.960017678886
 H    1.976819433460   -0.639443554636    4.960017678886
CS   -0.061106566540    0.408552445364   -2.239982321114
