9

 C   -0.984629566540   -1.846582554636    5.166685082173
 H   -1.963556566540   -1.354794554636    5.166685082173
 H   -0.877483566540   -2.486391554636    6.054957082173
 H   -0.877483566540   -2.486391554636    4.278413082173
 C    0.099997433460   -0.800998554636    5.166685082173
 O   -0.061106566540    0.408552445364    5.166685082173
 O    1.342283433460   -1.378006554636    5.166685082173
 H    1.976819433460   -0.639443554636    5.166685082173
CS   -0.061106566540    0.408552445364   -2.333314917827
