9

 C   -0.984629566540   -1.846582554636    5.304463351031
 H   -1.963556566540   -1.354794554636    5.304463351031
 H   -0.877483566540   -2.486391554636    6.192735351031
 H   -0.877483566540   -2.486391554636    4.416191351031
 C    0.099997433460   -0.800998554636    5.304463351031
 O   -0.061106566540    0.408552445364    5.304463351031
 O    1.342283433460   -1.378006554636    5.304463351031
 H    1.976819433460   -0.639443554636    5.304463351031
CS   -0.061106566540    0.408552445364   -2.395536648969
