9

 C   -0.984629566540   -1.846582554636    6.200022098608
 H   -1.963556566540   -1.354794554636    6.200022098608
 H   -0.877483566540   -2.486391554636    7.088294098608
 H   -0.877483566540   -2.486391554636    5.311750098608
 C    0.099997433460   -0.800998554636    6.200022098608
 O   -0.061106566540    0.408552445364    6.200022098608
 O    1.342283433460   -1.378006554636    6.200022098608
 H    1.976819433460   -0.639443554636    6.200022098608
CS   -0.061106566540    0.408552445364   -2.799977901392
