9

 C   -0.984629566540   -1.846582554636    6.475578636324
 H   -1.963556566540   -1.354794554636    6.475578636324
 H   -0.877483566540   -2.486391554636    7.363850636324
 H   -0.877483566540   -2.486391554636    5.587306636324
 C    0.099997433460   -0.800998554636    6.475578636324
 O   -0.061106566540    0.408552445364    6.475578636324
 O    1.342283433460   -1.378006554636    6.475578636324
 H    1.976819433460   -0.639443554636    6.475578636324
CS   -0.061106566540    0.408552445364   -2.924421363676
