16

 N   -1.089069337944    0.068037406727    0.489939277867
 C    0.143056394323   -0.562252873281    0.490894238175
 N    0.413197330449   -1.883138348249    0.487430049228
 C    1.741326498912   -2.101332240999    0.502997477891
 H    2.055134781882   -3.148010973489    0.506377048582
 N    2.753675941953   -1.193351283858    0.516968748166
 C    2.441459198046    0.117469799391    0.512322344266
 N    3.449086152848    1.041968436696    0.470500507335
 H    4.380537690235    0.711438327944    0.692958441468
 H    3.216348646821    2.001939191735    0.695310752775
 C    1.075958357172    0.494163653258    0.503551256551
 N    0.452429045981    1.733129353888    0.513429465569
 C   -0.847496441176    1.425049965527    0.504974612411
 H   -1.657549969963    2.151630766629    0.509022750274
 H   -1.992859015114   -0.392219717107    0.482336221934
CS   -1.086705392578    0.071143475383   -0.510053104154
