16

 N   -1.089186587269    0.067883348831    0.539537899193
 C    0.142939144998   -0.562406931177    0.540492859501
 N    0.413080081124   -1.883292406145    0.537028670554
 C    1.741209249587   -2.101486298895    0.552596099217
 H    2.055017532557   -3.148165031385    0.555975669908
 N    2.753558692628   -1.193505341754    0.566567369492
 C    2.441341948721    0.117315741495    0.561920965592
 N    3.448968903523    1.041814378800    0.520099128661
 H    4.380420440910    0.711284270048    0.742557062794
 H    3.216231397496    2.001785133839    0.744909374101
 C    1.075841107847    0.494009595362    0.553149877877
 N    0.452311796656    1.732975295992    0.563028086895
 C   -0.847613690501    1.424895907631    0.554573233737
 H   -1.657667219288    2.151476708733    0.558621371600
 H   -1.992976264439   -0.392373775003    0.531934843260
CS   -1.086586247366    0.071300024352   -0.560453721030
