16

 N   -1.089303836593    0.067729290934    0.589136520520
 C    0.142821895674   -0.562560989074    0.590091480828
 N    0.412962831800   -1.883446464042    0.586627291881
 C    1.741092000263   -2.101640356792    0.602194720544
 H    2.054900283233   -3.148319089282    0.605574291235
 N    2.753441443304   -1.193659399651    0.616165990819
 C    2.441224699397    0.117161683598    0.611519586919
 N    3.448851654199    1.041660320903    0.569697749988
 H    4.380303191586    0.711130212151    0.792155684121
 H    3.216114148172    2.001631075942    0.794507995428
 C    1.075723858523    0.493855537465    0.602748499204
 N    0.452194547332    1.732821238095    0.612626708222
 C   -0.847730939825    1.424741849734    0.604171855064
 H   -1.657784468612    2.151322650836    0.608219992927
 H   -1.993093513763   -0.392527832900    0.581533464587
CS   -1.086467102153    0.071456573320   -0.610854337906
