16

 N   -1.089421085917    0.067575233037    0.638735141846
 C    0.142704646350   -0.562715046971    0.639690102154
 N    0.412845582476   -1.883600521939    0.636225913207
 C    1.740974750939   -2.101794414689    0.651793341870
 H    2.054783033909   -3.148473147179    0.655172912561
 N    2.753324193980   -1.193813457548    0.665764612145
 C    2.441107450073    0.117007625701    0.661118208245
 N    3.448734404875    1.041506263006    0.619296371314
 H    4.380185942262    0.710976154254    0.841754305447
 H    3.215996898848    2.001477018045    0.844106616754
 C    1.075606609199    0.493701479568    0.652347120530
 N    0.452077298008    1.732667180198    0.662225329548
 C   -0.847848189149    1.424587791837    0.653770476390
 H   -1.657901717936    2.151168592939    0.657818614253
 H   -1.993210763087   -0.392681890797    0.631132085913
CS   -1.086347956941    0.071613122289   -0.661254954781
