16

 N   -1.089655584566    0.067267117244    0.737932384498
 C    0.142470147701   -0.563023162764    0.738887344806
 N    0.412611083827   -1.883908637732    0.735423155859
 C    1.740740252290   -2.102102530482    0.750990584522
 H    2.054548535260   -3.148781262972    0.754370155213
 N    2.753089695331   -1.194121573341    0.764961854797
 C    2.440872951424    0.116699509908    0.760315450897
 N    3.448499906226    1.041198147213    0.718493613966
 H    4.379951443613    0.710668038461    0.940951548099
 H    3.215762400199    2.001168902252    0.943303859406
 C    1.075372110550    0.493393363775    0.751544363182
 N    0.451842799359    1.732359064405    0.761422572200
 C   -0.848082687798    1.424279676044    0.752967719042
 H   -1.658136216585    2.150860477146    0.757015856905
 H   -1.993445261736   -0.392990006590    0.730329328565
CS   -1.086109666516    0.071926220227   -0.762056188533
