16

 N   -1.089890083214    0.066959001451    0.837129627151
 C    0.142235649053   -0.563331278557    0.838084587459
 N    0.412376585179   -1.884216753525    0.834620398512
 C    1.740505753642   -2.102410646275    0.850187827175
 H    2.054314036612   -3.149089378765    0.853567397866
 N    2.752855196683   -1.194429689134    0.864159097450
 C    2.440638452776    0.116391394115    0.859512693550
 N    3.448265407578    1.040890031420    0.817690856619
 H    4.379716944965    0.710359922668    1.040148790752
 H    3.215527901551    2.000860786459    1.042501102059
 C    1.075137611902    0.493085247982    0.850741605835
 N    0.451608300711    1.732050948612    0.860619814853
 C   -0.848317186446    1.423971560251    0.852164961695
 H   -1.658370715233    2.150552361353    0.856213099558
 H   -1.993679760384   -0.393298122383    0.829526571218
CS   -1.085871376091    0.072239318165   -0.862857422285
