16

 N   -1.090007332539    0.066804943554    0.886728248477
 C    0.142118399728   -0.563485336454    0.887683208785
 N    0.412259335854   -1.884370811422    0.884219019838
 C    1.740388504317   -2.102564704172    0.899786448501
 H    2.054196787287   -3.149243436662    0.903166019192
 N    2.752737947358   -1.194583747031    0.913757718776
 C    2.440521203451    0.116237336218    0.909111314876
 N    3.448148158253    1.040735973523    0.867289477945
 H    4.379599695640    0.710205864771    1.089747412078
 H    3.215410652226    2.000706728562    1.092099723385
 C    1.075020362577    0.492931190085    0.900340227161
 N    0.451491051386    1.731896890715    0.910218436179
 C   -0.848434435771    1.423817502354    0.901763583021
 H   -1.658487964558    2.150398303456    0.905811720884
 H   -1.993797009709   -0.393452180280    0.879125192544
CS   -1.085752230879    0.072395867134   -0.913258039161
