16

 N   -1.090124581863    0.066650885657    0.936326869803
 C    0.142001150404   -0.563639394351    0.937281830111
 N    0.412142086530   -1.884524869319    0.933817641164
 C    1.740271254993   -2.102718762069    0.949385069827
 H    2.054079537963   -3.149397494559    0.952764640518
 N    2.752620698034   -1.194737804928    0.963356340102
 C    2.440403954127    0.116083278321    0.958709936202
 N    3.448030908929    1.040581915626    0.916888099271
 H    4.379482446316    0.710051806874    1.139346033404
 H    3.215293402902    2.000552670665    1.141698344711
 C    1.074903113253    0.492777132188    0.949938848487
 N    0.451373802062    1.731742832818    0.959817057505
 C   -0.848551685095    1.423663444457    0.951362204347
 H   -1.658605213882    2.150244245559    0.955410342210
 H   -1.993914259033   -0.393606238177    0.928723813870
CS   -1.085633085667    0.072552416103   -0.963658656037
