16

 N   -1.090359080511    0.066342769864    1.035524112456
 C    0.141766651756   -0.563947510144    1.036479072764
 N    0.411907587882   -1.884832985112    1.033014883817
 C    1.740036756345   -2.103026877862    1.048582312480
 H    2.053845039315   -3.149705610352    1.051961883171
 N    2.752386199386   -1.195045920721    1.062553582755
 C    2.440169455479    0.115775162528    1.057907178855
 N    3.447796410281    1.040273799833    1.016085341924
 H    4.379247947668    0.709743691081    1.238543276057
 H    3.215058904254    2.000244554872    1.240895587364
 C    1.074668614605    0.492469016395    1.049136091140
 N    0.451139303414    1.731434717025    1.059014300158
 C   -0.848786183743    1.423355328664    1.050559447000
 H   -1.658839712530    2.149936129766    1.054607584863
 H   -1.994148757681   -0.393914353970    1.027921056523
CS   -1.085394795242    0.072865514040   -1.064459889788
