16

 N   -1.090476329836    0.066188711967    1.085122733782
 C    0.141649402431   -0.564101568041    1.086077694090
 N    0.411790338557   -1.884987043009    1.082613505143
 C    1.739919507020   -2.103180935759    1.098180933806
 H    2.053727789990   -3.149859668249    1.101560504497
 N    2.752268950061   -1.195199978618    1.112152204081
 C    2.440052206154    0.115621104631    1.107505800181
 N    3.447679160956    1.040119741936    1.065683963250
 H    4.379130698343    0.709589633184    1.288141897383
 H    3.214941654929    2.000090496975    1.290494208690
 C    1.074551365280    0.492314958498    1.098734712466
 N    0.451022054089    1.731280659128    1.108612921484
 C   -0.848903433068    1.423201270767    1.100158068326
 H   -1.658956961855    2.149782071869    1.104206206189
 H   -1.994266007006   -0.394068411867    1.077519677849
CS   -1.085275650029    0.073022063009   -1.114860506664
