16

 N   -1.090593579160    0.066034654071    1.134721355108
 C    0.141532153107   -0.564255625937    1.135676315416
 N    0.411673089233   -1.885141100905    1.132212126469
 C    1.739802257696   -2.103334993655    1.147779555132
 H    2.053610540666   -3.150013726145    1.151159125823
 N    2.752151700737   -1.195354036514    1.161750825407
 C    2.439934956830    0.115467046735    1.157104421507
 N    3.447561911632    1.039965684040    1.115282584576
 H    4.379013449019    0.709435575288    1.337740518709
 H    3.214824405605    1.999936439079    1.340092830016
 C    1.074434115956    0.492160900602    1.148333333792
 N    0.450904804765    1.731126601232    1.158211542810
 C   -0.849020682392    1.423047212871    1.149756689652
 H   -1.659074211179    2.149628013973    1.153804827515
 H   -1.994383256330   -0.394222469763    1.127118299175
CS   -1.085156504817    0.073178611978   -1.165261123540
