16

 N   -1.090710828484    0.065880596174    1.184319976434
 C    0.141414903783   -0.564409683834    1.185274936742
 N    0.411555839909   -1.885295158802    1.181810747795
 C    1.739685008372   -2.103489051552    1.197378176458
 H    2.053493291342   -3.150167784042    1.200757747149
 N    2.752034451413   -1.195508094411    1.211349446733
 C    2.439817707506    0.115312988838    1.206703042833
 N    3.447444662308    1.039811626143    1.164881205902
 H    4.378896199695    0.709281517391    1.387339140035
 H    3.214707156281    1.999782381182    1.389691451342
 C    1.074316866632    0.492006842705    1.197931955118
 N    0.450787555441    1.730972543335    1.207810164136
 C   -0.849137931716    1.422893154974    1.199355310978
 H   -1.659191460503    2.149473956076    1.203403448841
 H   -1.994500505654   -0.394376527660    1.176716920501
CS   -1.085037359605    0.073335160947   -1.215661740416
