16

 N   -1.090828077808    0.065726538277    1.233918597760
 C    0.141297654459   -0.564563741731    1.234873558068
 N    0.411438590585   -1.885449216699    1.231409369121
 C    1.739567759048   -2.103643109449    1.246976797784
 H    2.053376042018   -3.150321841939    1.250356368475
 N    2.751917202089   -1.195662152308    1.260948068059
 C    2.439700458182    0.115158930941    1.256301664159
 N    3.447327412984    1.039657568246    1.214479827228
 H    4.378778950371    0.709127459494    1.436937761361
 H    3.214589906957    1.999628323285    1.439290072668
 C    1.074199617308    0.491852784808    1.247530576444
 N    0.450670306117    1.730818485438    1.257408785462
 C   -0.849255181040    1.422739097077    1.248953932304
 H   -1.659308709827    2.149319898179    1.253002070167
 H   -1.994617754978   -0.394530585557    1.226315541827
CS   -1.084918214392    0.073491709916   -1.266062357292
