16

 N   -1.090945327133    0.065572480381    1.283517219087
 C    0.141180405134   -0.564717799627    1.284472179395
 N    0.411321341260   -1.885603274595    1.281007990448
 C    1.739450509723   -2.103797167345    1.296575419111
 H    2.053258792693   -3.150475899835    1.299954989802
 N    2.751799952764   -1.195816210204    1.310546689386
 C    2.439583208857    0.115004873045    1.305900285486
 N    3.447210163659    1.039503510350    1.264078448555
 H    4.378661701046    0.708973401598    1.486536382688
 H    3.214472657632    1.999474265389    1.488888693995
 C    1.074082367983    0.491698726912    1.297129197771
 N    0.450553056792    1.730664427542    1.307007406789
 C   -0.849372430365    1.422585039181    1.298552553631
 H   -1.659425959152    2.149165840283    1.302600691494
 H   -1.994735004303   -0.394684643453    1.275914163154
CS   -1.084799069180    0.073648258885   -1.316462974168
