16

 N   -1.091062576457    0.065418422484    1.333115840413
 C    0.141063155810   -0.564871857524    1.334070800721
 N    0.411204091936   -1.885757332492    1.330606611774
 C    1.739333260399   -2.103951225242    1.346174040437
 H    2.053141543369   -3.150629957732    1.349553611128
 N    2.751682703440   -1.195970268101    1.360145310712
 C    2.439465959533    0.114850815148    1.355498906812
 N    3.447092914335    1.039349452453    1.313677069881
 H    4.378544451722    0.708819343701    1.536135004014
 H    3.214355408308    1.999320207492    1.538487315321
 C    1.073965118659    0.491544669015    1.346727819097
 N    0.450435807468    1.730510369645    1.356606028115
 C   -0.849489679689    1.422430981284    1.348151174957
 H   -1.659543208476    2.149011782386    1.352199312820
 H   -1.994852253627   -0.394838701350    1.325512784480
CS   -1.084679923968    0.073804807854   -1.366863591044
