16

 N   -1.091414324430    0.064956248794    1.481911704392
 C    0.140711407837   -0.565334031214    1.482866664700
 N    0.410852343963   -1.886219506182    1.479402475753
 C    1.738981512426   -2.104413398932    1.494969904416
 H    2.052789795396   -3.151092131422    1.498349475107
 N    2.751330955467   -1.196432441791    1.508941174691
 C    2.439114211560    0.114388641458    1.504294770791
 N    3.446741166362    1.038887278763    1.462472933860
 H    4.378192703749    0.708357170011    1.684930867993
 H    3.214003660335    1.998858033802    1.687283179300
 C    1.073613370686    0.491082495325    1.495523683076
 N    0.450084059495    1.730048195955    1.505401892094
 C   -0.849841427662    1.421968807594    1.496947038936
 H   -1.659894956449    2.148549608696    1.500995176799
 H   -1.995204001600   -0.395300875040    1.474308648459
CS   -1.084322488330    0.074274454760   -1.518065441671
