16

 N   -1.091648823078    0.064648133001    1.581108947044
 C    0.140476909189   -0.565642147007    1.582063907352
 N    0.410617845315   -1.886527621975    1.578599718405
 C    1.738747013778   -2.104721514725    1.594167147068
 H    2.052555296748   -3.151400247215    1.597546717759
 N    2.751096456819   -1.196740557584    1.608138417343
 C    2.438879712912    0.114080525665    1.603492013443
 N    3.446506667714    1.038579162970    1.561670176512
 H    4.377958205101    0.708049054218    1.784128110645
 H    3.213769161687    1.998549918009    1.786480421952
 C    1.073378872038    0.490774379532    1.594720925728
 N    0.449849560847    1.729740080162    1.604599134746
 C   -0.850075926310    1.421660691801    1.596144281588
 H   -1.660129455097    2.148241492903    1.600192419451
 H   -1.995438500248   -0.395608990833    1.573505891111
CS   -1.084084197906    0.074587552698   -1.618866675423
