16

 N   -1.091766072403    0.064494075104    1.630707568370
 C    0.140359659864   -0.565796204904    1.631662528678
 N    0.410500595990   -1.886681679872    1.628198339731
 C    1.738629764453   -2.104875572622    1.643765768394
 H    2.052438047423   -3.151554305112    1.647145339085
 N    2.750979207494   -1.196894615481    1.657737038669
 C    2.438762463587    0.113926467768    1.653090634769
 N    3.446389418389    1.038425105073    1.611268797838
 H    4.377840955776    0.707894996321    1.833726731971
 H    3.213651912362    1.998395860112    1.836079043278
 C    1.073261622713    0.490620321635    1.644319547054
 N    0.449732311522    1.729586022265    1.654197756072
 C   -0.850193175635    1.421506633904    1.645742902914
 H   -1.660246704422    2.148087435006    1.649791040777
 H   -1.995555749573   -0.395763048730    1.623104512437
CS   -1.083965052693    0.074744101667   -1.669267292299
