16

 N   -1.092469568348    0.063569727724    1.928299296328
 C    0.139656163919   -0.566720552284    1.929254256636
 N    0.409797100045   -1.887606027252    1.925790067689
 C    1.737926268508   -2.105799920002    1.941357496352
 H    2.051734551478   -3.152478652492    1.944737067043
 N    2.750275711549   -1.197818962861    1.955328766627
 C    2.438058967642    0.113002120388    1.950682362727
 N    3.445685922444    1.037500757693    1.908860525796
 H    4.377137459831    0.706970648941    2.131318459929
 H    3.212948416417    1.997471512732    2.133670771236
 C    1.072558126768    0.489695974255    1.941911275012
 N    0.449028815577    1.728661674885    1.951789484030
 C   -0.850896671580    1.420582286524    1.943334630872
 H   -1.660950200367    2.147163087626    1.947382768735
 H   -1.996259245518   -0.396687396110    1.920696240395
CS   -1.083250181419    0.075683395480   -1.971670993554
