16

 N   -1.092704066997    0.063261611931    2.027496538980
 C    0.139421665270   -0.567028668077    2.028451499288
 N    0.409562601396   -1.887914143045    2.024987310341
 C    1.737691769859   -2.106108035795    2.040554739004
 H    2.051500052829   -3.152786768285    2.043934309695
 N    2.750041212900   -1.198127078654    2.054526009279
 C    2.437824468993    0.112694004595    2.049879605379
 N    3.445451423795    1.037192641900    2.008057768448
 H    4.376902961182    0.706662533148    2.230515702581
 H    3.212713917768    1.997163396939    2.232868013888
 C    1.072323628119    0.489387858462    2.041108517664
 N    0.448794316928    1.728353559092    2.050986726682
 C   -0.851131170229    1.420274170731    2.042531873524
 H   -1.661184699016    2.146854971833    2.046580011387
 H   -1.996493744167   -0.396995511903    2.019893483047
CS   -1.083011890994    0.075996493418   -2.072472227306
