16

 N   -1.092938565645    0.062953496138    2.126693781632
 C    0.139187166622   -0.567336783870    2.127648741940
 N    0.409328102748   -1.888222258838    2.124184552993
 C    1.737457271211   -2.106416151588    2.139751981656
 H    2.051265554181   -3.153094884078    2.143131552347
 N    2.749806714252   -1.198435194447    2.153723251931
 C    2.437589970345    0.112385888802    2.149076848031
 N    3.445216925147    1.036884526107    2.107255011100
 H    4.376668462534    0.706354417355    2.329712945233
 H    3.212479419120    1.996855281146    2.332065256540
 C    1.072089129471    0.489079742669    2.140305760316
 N    0.448559818280    1.728045443299    2.150183969334
 C   -0.851365668877    1.419966054938    2.141729116176
 H   -1.661419197664    2.146546856040    2.145777254039
 H   -1.996728242815   -0.397303627696    2.119090725699
CS   -1.082773600570    0.076309591356   -2.173273461057
