16

 N   -1.093055814970    0.062799438241    2.176292402959
 C    0.139069917297   -0.567490841767    2.177247363267
 N    0.409210853423   -1.888376316735    2.173783174320
 C    1.737340021886   -2.106570209485    2.189350602983
 H    2.051148304856   -3.153248941975    2.192730173674
 N    2.749689464927   -1.198589252344    2.203321873258
 C    2.437472721020    0.112231830905    2.198675469358
 N    3.445099675822    1.036730468210    2.156853632427
 H    4.376551213209    0.706200359458    2.379311566560
 H    3.212362169795    1.996701223249    2.381663877867
 C    1.071971880146    0.488925684772    2.189904381643
 N    0.448442568955    1.727891385402    2.199782590661
 C   -0.851482918202    1.419811997041    2.191327737503
 H   -1.661536446989    2.146392798143    2.195375875366
 H   -1.996845492140   -0.397457685593    2.168689347026
CS   -1.082654455357    0.076466140324   -2.223674077933
