16

 N   -1.093642061591    0.062029148758    2.424285509590
 C    0.138483670676   -0.568261131250    2.425240469898
 N    0.408624606802   -1.889146606218    2.421776280951
 C    1.736753775265   -2.107340498968    2.437343709614
 H    2.050562058235   -3.154019231458    2.440723280305
 N    2.749103218306   -1.199359541827    2.451314979889
 C    2.436886474399    0.111461541422    2.446668575989
 N    3.444513429201    1.035960178727    2.404846739058
 H    4.375964966588    0.705430069975    2.627304673191
 H    3.211775923174    1.995930933766    2.629656984498
 C    1.071385633525    0.488155395289    2.437897488274
 N    0.447856322334    1.727121095919    2.447775697292
 C   -0.852069164823    1.419041707558    2.439320844134
 H   -1.662122693610    2.145622508660    2.443368981997
 H   -1.997431738761   -0.398227975076    2.416682453657
CS   -1.082058729295    0.077248885169   -2.475677162313
