16

 N   -1.093759310915    0.061875090861    2.473884130916
 C    0.138366421352   -0.568415189147    2.474839091224
 N    0.408507357478   -1.889300664115    2.471374902277
 C    1.736636525941   -2.107494556865    2.486942330940
 H    2.050444808911   -3.154173289355    2.490321901631
 N    2.748985968982   -1.199513599724    2.500913601215
 C    2.436769225075    0.111307483525    2.496267197315
 N    3.444396179877    1.035806120830    2.454445360384
 H    4.375847717264    0.705276012078    2.676903294517
 H    3.211658673850    1.995776875869    2.679255605824
 C    1.071268384201    0.488001337392    2.487496109600
 N    0.447739073010    1.726967038022    2.497374318618
 C   -0.852186414147    1.418887649661    2.488919465460
 H   -1.662239942934    2.145468450763    2.492967603323
 H   -1.997548988085   -0.398382032973    2.466281074983
CS   -1.081939584083    0.077405434138   -2.526077779188
