16

 N   -1.094111058888    0.061412917171    2.622679994895
 C    0.138014673379   -0.568877362837    2.623634955203
 N    0.408155609505   -1.889762837805    2.620170766256
 C    1.736284777968   -2.107956730555    2.635738194919
 H    2.050093060938   -3.154635463045    2.639117765610
 N    2.748634221009   -1.199975773414    2.649709465194
 C    2.436417477102    0.110845309835    2.645063061294
 N    3.444044431904    1.035343947140    2.603241224363
 H    4.375495969291    0.704813838388    2.825699158496
 H    3.211306925877    1.995314702179    2.828051469803
 C    1.070916636228    0.487539163702    2.636291973579
 N    0.447387325037    1.726504864332    2.646170182597
 C   -0.852538162120    1.418425475971    2.637715329439
 H   -1.662591690907    2.145006277073    2.641763467302
 H   -1.997900736058   -0.398844206663    2.615076938962
CS   -1.081582148446    0.077875081044   -2.677279629816
