16

 N   -1.094462806861    0.060950743481    2.771475858873
 C    0.137662925406   -0.569339536527    2.772430819181
 N    0.407803861532   -1.890225011495    2.768966630234
 C    1.735933029995   -2.108418904245    2.784534058897
 H    2.049741312965   -3.155097636735    2.787913629588
 N    2.748282473036   -1.200437947104    2.798505329172
 C    2.436065729129    0.110383136145    2.793858925272
 N    3.443692683931    1.034881773450    2.752037088341
 H    4.375144221318    0.704351664698    2.974495022474
 H    3.210955177904    1.994852528489    2.976847333781
 C    1.070564888255    0.487076990012    2.785087837557
 N    0.447035577064    1.726042690642    2.794966046575
 C   -0.852889910093    1.417963302281    2.786511193417
 H   -1.662943438880    2.144544103383    2.790559331280
 H   -1.998252484031   -0.399306380353    2.763872802940
CS   -1.081224712809    0.078344727951   -2.828481480444
