16

 N   -1.094580056185    0.060796685584    2.821074480200
 C    0.137545676082   -0.569493594424    2.822029440508
 N    0.407686612208   -1.890379069392    2.818565251561
 C    1.735815780671   -2.108572962142    2.834132680224
 H    2.049624063641   -3.155251694632    2.837512250915
 N    2.748165223712   -1.200592005001    2.848103950499
 C    2.435948479805    0.110229078248    2.843457546599
 N    3.443575434607    1.034727715553    2.801635709668
 H    4.375026971994    0.704197606801    3.024093643801
 H    3.210837928580    1.994698470592    3.026445955108
 C    1.070447638931    0.486922932115    2.834686458884
 N    0.446918327740    1.725888632745    2.844564667902
 C   -0.853007159417    1.417809244384    2.836109814744
 H   -1.663060688204    2.144390045486    2.840157952607
 H   -1.998369733355   -0.399460438250    2.813471424267
CS   -1.081105567596    0.078501276920   -2.878882097320
