16

 N   -1.094697305509    0.060642627688    2.870673101526
 C    0.137428426758   -0.569647652320    2.871628061834
 N    0.407569362884   -1.890533127288    2.868163872887
 C    1.735698531347   -2.108727020038    2.883731301550
 H    2.049506814317   -3.155405752528    2.887110872241
 N    2.748047974388   -1.200746062897    2.897702571825
 C    2.435831230481    0.110075020352    2.893056167925
 N    3.443458185283    1.034573657657    2.851234330994
 H    4.374909722670    0.704043548905    3.073692265127
 H    3.210720679256    1.994544412696    3.076044576434
 C    1.070330389607    0.486768874219    2.884285080210
 N    0.446801078416    1.725734574849    2.894163289228
 C   -0.853124408741    1.417655186488    2.885708436070
 H   -1.663177937528    2.144235987590    2.889756573933
 H   -1.998486982679   -0.399614496146    2.863070045593
CS   -1.080986422384    0.078657825889   -2.929282714195
