16

 N   -1.094814554834    0.060488569791    2.920271722852
 C    0.137311177433   -0.569801710217    2.921226683160
 N    0.407452113559   -1.890687185185    2.917762494213
 C    1.735581282022   -2.108881077935    2.933329922876
 H    2.049389564992   -3.155559810425    2.936709493567
 N    2.747930725063   -1.200900120794    2.947301193151
 C    2.435713981156    0.109920962455    2.942654789251
 N    3.443340935958    1.034419599760    2.900832952320
 H    4.374792473345    0.703889491008    3.123290886453
 H    3.210603429931    1.994390354799    3.125643197760
 C    1.070213140282    0.486614816322    2.933883701536
 N    0.446683829091    1.725580516952    2.943761910554
 C   -0.853241658066    1.417501128591    2.935307057396
 H   -1.663295186853    2.144081929693    2.939355195259
 H   -1.998604232004   -0.399768554043    2.912668666919
CS   -1.080867277172    0.078814374858   -2.979683331071
