16

 N   -1.095049053482    0.060180453998    3.019468965504
 C    0.137076678785   -0.570109826010    3.020423925812
 N    0.407217614911   -1.890995300978    3.016959736865
 C    1.735346783374   -2.109189193728    3.032527165528
 H    2.049155066344   -3.155867926218    3.035906736219
 N    2.747696226415   -1.201208236587    3.046498435803
 C    2.435479482508    0.109612846662    3.041852031903
 N    3.443106437310    1.034111483967    3.000030194972
 H    4.374557974697    0.703581375215    3.222488129105
 H    3.210368931283    1.994082239006    3.224840440412
 C    1.069978641634    0.486306700529    3.033080944188
 N    0.446449330443    1.725272401159    3.042959153206
 C   -0.853476156714    1.417193012798    3.034504300048
 H   -1.663529685501    2.143773813900    3.038552437911
 H   -1.998838730652   -0.400076669836    3.011865909571
CS   -1.080628986747    0.079127472795   -3.080484564823
