16

 N   -1.095283552131    0.059872338204    3.118666208157
 C    0.136842180136   -0.570417941804    3.119621168465
 N    0.406983116262   -1.891303416772    3.116156979518
 C    1.735112284725   -2.109497309522    3.131724408181
 H    2.048920567695   -3.156176042012    3.135103978872
 N    2.747461727766   -1.201516352381    3.145695678456
 C    2.435244983859    0.109304730868    3.141049274556
 N    3.442871938661    1.033803368173    3.099227437625
 H    4.374323476048    0.703273259421    3.321685371758
 H    3.210134432634    1.993774123212    3.324037683065
 C    1.069744142985    0.485998584735    3.132278186841
 N    0.446214831794    1.724964285365    3.142156395859
 C   -0.853710655363    1.416884897004    3.133701542701
 H   -1.663764184150    2.143465698106    3.137749680564
 H   -1.999073229301   -0.400384785630    3.111063152224
CS   -1.080390696322    0.079440570733   -3.181285798575
