16

 N   -1.095400801455    0.059718280308    3.168264829483
 C    0.136724930812   -0.570571999700    3.169219789791
 N    0.406865866938   -1.891457474668    3.165755600844
 C    1.734995035401   -2.109651367418    3.181323029507
 H    2.048803318371   -3.156330099908    3.184702600198
 N    2.747344478442   -1.201670410277    3.195294299782
 C    2.435127734535    0.109150672972    3.190647895882
 N    3.442754689337    1.033649310277    3.148826058951
 H    4.374206226724    0.703119201525    3.371283993084
 H    3.210017183310    1.993620065316    3.373636304391
 C    1.069626893661    0.485844526839    3.181876808167
 N    0.446097582470    1.724810227469    3.191755017185
 C   -0.853827904687    1.416730839108    3.183300164027
 H   -1.663881433474    2.143311640210    3.187348301890
 H   -1.999190478625   -0.400538843526    3.160661773550
CS   -1.080271551110    0.079597119702   -3.231686415451
