16

 N   -1.095635300103    0.059410164514    3.267462072135
 C    0.136490432164   -0.570880115494    3.268417032443
 N    0.406631368290   -1.891765590462    3.264952843496
 C    1.734760536753   -2.109959483212    3.280520272159
 H    2.048568819723   -3.156638215702    3.283899842850
 N    2.747109979794   -1.201978526071    3.294491542434
 C    2.434893235887    0.108842557178    3.289845138534
 N    3.442520190689    1.033341194483    3.248023301603
 H    4.373971728076    0.702811085731    3.470481235736
 H    3.209782684662    1.993311949522    3.472833547043
 C    1.069392395013    0.485536411045    3.281074050819
 N    0.445863083822    1.724502111675    3.290952259837
 C   -0.854062403335    1.416422723314    3.282497406679
 H   -1.664115932122    2.143003524416    3.286545544542
 H   -1.999424977273   -0.400846959320    3.259859016202
CS   -1.080033260685    0.079910217640   -3.332487649202
