16

 N   -1.095987048076    0.058947990824    3.416257936114
 C    0.136138684191   -0.571342289184    3.417212896422
 N    0.406279620317   -1.892227764152    3.413748707475
 C    1.734408788780   -2.110421656902    3.429316136138
 H    2.048217071750   -3.157100389392    3.432695706829
 N    2.746758231821   -1.202440699761    3.443287406413
 C    2.434541487914    0.108380383488    3.438641002513
 N    3.442168442716    1.032879020793    3.396819165582
 H    4.373619980103    0.702348912041    3.619277099715
 H    3.209430936689    1.992849775832    3.621629411022
 C    1.069040647040    0.485074237355    3.429869914798
 N    0.445511335849    1.724039937985    3.439748123816
 C   -0.854414151308    1.415960549624    3.431293270658
 H   -1.664467680095    2.142541350726    3.435341408521
 H   -1.999776725246   -0.401309133010    3.408654880181
CS   -1.079675825048    0.080379864546   -3.483689499830
