16

 N   -1.096104297400    0.058793932928    3.465856557440
 C    0.136021434867   -0.571496347080    3.466811517748
 N    0.406162370993   -1.892381822048    3.463347328801
 C    1.734291539456   -2.110575714798    3.478914757464
 H    2.048099822426   -3.157254447288    3.482294328155
 N    2.746640982497   -1.202594757657    3.492886027739
 C    2.434424238590    0.108226325592    3.488239623839
 N    3.442051193392    1.032724962897    3.446417786908
 H    4.373502730779    0.702194854145    3.668875721041
 H    3.209313687365    1.992695717936    3.671228032348
 C    1.068923397716    0.484920179459    3.479468536124
 N    0.445394086525    1.723885880089    3.489346745142
 C   -0.854531400632    1.415806491728    3.480891891984
 H   -1.664584929419    2.142387292830    3.484940029847
 H   -1.999893974570   -0.401463190906    3.458253501507
CS   -1.079556679836    0.080536413515   -3.534090116706
