16

 N   -1.096573294698    0.058177701341    3.664251042745
 C    0.135552437569   -0.572112578667    3.665206003053
 N    0.405693373695   -1.892998053635    3.661741814106
 C    1.733822542158   -2.111191946385    3.677309242769
 H    2.047630825128   -3.157870678875    3.680688813460
 N    2.746171985199   -1.203210989244    3.691280513044
 C    2.433955241292    0.107610094005    3.686634109144
 N    3.441582196094    1.032108731310    3.644812272213
 H    4.373033733481    0.701578622558    3.867270206346
 H    3.208844690067    1.992079486349    3.869622517653
 C    1.068454400418    0.484303947872    3.677863021429
 N    0.444925089227    1.723269648502    3.687741230447
 C   -0.855000397930    1.415190260141    3.679286377289
 H   -1.665053926717    2.141771061243    3.683334515152
 H   -2.000362971868   -0.402079422493    3.656647986812
CS   -1.079080098986    0.081162609391   -3.735692584209
