16

 N   -1.097042291995    0.057561469754    3.862645528050
 C    0.135083440272   -0.572728810254    3.863600488358
 N    0.405224376398   -1.893614285222    3.860136299411
 C    1.733353544861   -2.111808177972    3.875703728074
 H    2.047161827831   -3.158486910462    3.879083298765
 N    2.745702987902   -1.203827220831    3.889674998349
 C    2.433486243995    0.106993862418    3.885028594449
 N    3.441113198797    1.031492499723    3.843206757518
 H    4.372564736184    0.700962390971    4.065664691651
 H    3.208375692770    1.991463254762    4.068017002958
 C    1.067985403121    0.483687716285    3.876257506734
 N    0.444456091930    1.722653416915    3.886135715752
 C   -0.855469395227    1.414574028554    3.877680862594
 H   -1.665522924014    2.141154829656    3.881729000457
 H   -2.000831969165   -0.402695654080    3.855042472117
CS   -1.078603518137    0.081788805266   -3.937295051713
