16

 N   -1.097276790643    0.057253353961    3.961842770703
 C    0.134848941624   -0.573036926047    3.962797731011
 N    0.404989877750   -1.893922401015    3.959333542064
 C    1.733119046213   -2.112116293765    3.974900970727
 H    2.046927329183   -3.158795026255    3.978280541418
 N    2.745468489254   -1.204135336624    3.988872241002
 C    2.433251745347    0.106685746625    3.984225837102
 N    3.440878700149    1.031184383930    3.942404000171
 H    4.372330237536    0.700654275178    4.164861934304
 H    3.208141194122    1.991155138969    4.167214245611
 C    1.067750904473    0.483379600492    3.975454749387
 N    0.444221593282    1.722345301122    3.985332958405
 C   -0.855703893875    1.414265912761    3.976878105247
 H   -1.665757422662    2.140846713863    3.980926243110
 H   -2.001066467813   -0.403003769873    3.954239714770
CS   -1.078365227712    0.082101903204   -4.038096285465
