16

 N   -1.097394039967    0.057099296064    4.011441392029
 C    0.134731692300   -0.573190983944    4.012396352337
 N    0.404872628426   -1.894076458912    4.008932163390
 C    1.733001796889   -2.112270351662    4.024499592053
 H    2.046810079859   -3.158949084152    4.027879162744
 N    2.745351239930   -1.204289394521    4.038470862328
 C    2.433134496023    0.106531688728    4.033824458428
 N    3.440761450825    1.031030326033    3.992002621497
 H    4.372212988212    0.700500217281    4.214460555630
 H    3.208023944798    1.991001081072    4.216812866937
 C    1.067633655149    0.483225542595    4.025053370713
 N    0.444104343958    1.722191243225    4.034931579731
 C   -0.855821143199    1.414111854864    4.026476726573
 H   -1.665874671986    2.140692655966    4.030524864436
 H   -2.001183717137   -0.403157827770    4.003838336096
CS   -1.078246082499    0.082258452173   -4.088496902340
