16

 N   -1.097628538616    0.056791180271    4.110638634681
 C    0.134497193651   -0.573499099737    4.111593594989
 N    0.404638129777   -1.894384574705    4.108129406042
 C    1.732767298240   -2.112578467455    4.123696834705
 H    2.046575581210   -3.159257199945    4.127076405396
 N    2.745116741281   -1.204597510314    4.137668104980
 C    2.432899997374    0.106223572935    4.133021701080
 N    3.440526952176    1.030722210240    4.091199864149
 H    4.371978489563    0.700192101488    4.313657798282
 H    3.207789446149    1.990692965279    4.316010109589
 C    1.067399156500    0.482917426802    4.124250613365
 N    0.443869845309    1.721883127432    4.134128822383
 C   -0.856055641848    1.413803739071    4.125673969225
 H   -1.666109170635    2.140384540173    4.129722107088
 H   -2.001418215786   -0.403465943563    4.103035578748
CS   -1.078007792075    0.082571550111   -4.189298136092
