16

 N   -1.097745787940    0.056637122374    4.160237256007
 C    0.134379944327   -0.573653157634    4.161192216315
 N    0.404520880453   -1.894538632602    4.157728027368
 C    1.732650048916   -2.112732525352    4.173295456031
 H    2.046458331886   -3.159411257842    4.176675026722
 N    2.744999491957   -1.204751568211    4.187266726306
 C    2.432782748050    0.106069515038    4.182620322406
 N    3.440409702852    1.030568152343    4.140798485475
 H    4.371861240239    0.700038043591    4.363256419608
 H    3.207672196825    1.990538907382    4.365608730915
 C    1.067281907176    0.482763368905    4.173849234691
 N    0.443752595985    1.721729069535    4.183727443709
 C   -0.856172891172    1.413649681174    4.175272590551
 H   -1.666226419959    2.140230482276    4.179320728414
 H   -2.001535465110   -0.403620001460    4.152634200074
CS   -1.077888646862    0.082728099080   -4.239698752968
