16

 N   -1.098097535913    0.056174948685    4.309033119986
 C    0.134028196354   -0.574115331323    4.309988080294
 N    0.404169132480   -1.895000806291    4.306523891347
 C    1.732298300943   -2.113194699041    4.322091320010
 H    2.046106583913   -3.159873431531    4.325470890701
 N    2.744647743984   -1.205213741900    4.336062590285
 C    2.432431000077    0.105607341349    4.331416186385
 N    3.440057954879    1.030105978654    4.289594349454
 H    4.371509492266    0.699575869902    4.512052283587
 H    3.207320448852    1.990076733693    4.514404594894
 C    1.066930159203    0.482301195216    4.322645098670
 N    0.443400848012    1.721266895846    4.332523307688
 C   -0.856524639145    1.413187507485    4.324068454530
 H   -1.666578167932    2.139768308587    4.328116592393
 H   -2.001887213083   -0.404082175149    4.301430064053
CS   -1.077531211225    0.083197745986   -4.390900603596
