16

 N   -1.098566533210    0.055558717098    4.507427605291
 C    0.133559199057   -0.574731562910    4.508382565599
 N    0.403700135183   -1.895617037878    4.504918376652
 C    1.731829303646   -2.113810930628    4.520485805315
 H    2.045637586616   -3.160489663118    4.523865376006
 N    2.744178746687   -1.205829973487    4.534457075590
 C    2.431962002780    0.104991109762    4.529810671690
 N    3.439588957582    1.029489747067    4.487988834759
 H    4.371040494969    0.698959638315    4.710446768892
 H    3.206851451555    1.989460502106    4.712799080199
 C    1.066461161906    0.481684963629    4.521039583975
 N    0.442931850715    1.720650664259    4.530917792993
 C   -0.856993636442    1.412571275898    4.522462939835
 H   -1.667047165229    2.139152077000    4.526511077698
 H   -2.002356210380   -0.404698406736    4.499824549358
CS   -1.077054630376    0.083823941862   -4.592503071099
