16

 N   -1.098801031859    0.055250601305    4.606624847943
 C    0.133324700408   -0.575039678703    4.607579808251
 N    0.403465636534   -1.895925153671    4.604115619304
 C    1.731594804997   -2.114119046421    4.619683047967
 H    2.045403087967   -3.160797778911    4.623062618658
 N    2.743944248038   -1.206138089280    4.633654318242
 C    2.431727504131    0.104682993969    4.629007914342
 N    3.439354458933    1.029181631274    4.587186077411
 H    4.370805996320    0.698651522522    4.809644011544
 H    3.206616952906    1.989152386313    4.811996322851
 C    1.066226663257    0.481376847836    4.620236826627
 N    0.442697352066    1.720342548466    4.630115035645
 C   -0.857228135091    1.412263160105    4.621660182487
 H   -1.667281663878    2.138843961207    4.625708320350
 H   -2.002590709029   -0.405006522529    4.599021792010
CS   -1.076816339951    0.084137039799   -4.693304304851
