16

 N   -1.099152779831    0.054788427615    4.755420711922
 C    0.132972952436   -0.575501852393    4.756375672230
 N    0.403113888562   -1.896387327361    4.752911483283
 C    1.731243057025   -2.114581220111    4.768478911946
 H    2.045051339995   -3.161259952601    4.771858482637
 N    2.743592500066   -1.206600262970    4.782450182221
 C    2.431375756159    0.104220820279    4.777803778321
 N    3.439002710961    1.028719457584    4.735981941390
 H    4.370454248348    0.698189348832    4.958439875523
 H    3.206265204934    1.988690212623    4.960792186830
 C    1.065874915285    0.480914674146    4.769032690606
 N    0.442345604094    1.719880374776    4.778910899624
 C   -0.857579883063    1.411800986415    4.770456046466
 H   -1.667633411850    2.138381787517    4.774504184329
 H   -2.002942457001   -0.405468696219    4.747817655989
CS   -1.076458904314    0.084606686706   -4.844506155478
