16

 N   -1.099504527804    0.054326253925    4.904216575901
 C    0.132621204463   -0.575964026083    4.905171536209
 N    0.402762140589   -1.896849501051    4.901707347262
 C    1.730891309052   -2.115043393801    4.917274775925
 H    2.044699592022   -3.161722126291    4.920654346616
 N    2.743240752093   -1.207062436660    4.931246046200
 C    2.431024008186    0.103758646589    4.926599642300
 N    3.438650962988    1.028257283894    4.884777805369
 H    4.370102500375    0.697727175142    5.107235739502
 H    3.205913456961    1.988228038933    5.109588050809
 C    1.065523167312    0.480452500456    4.917828554585
 N    0.441993856121    1.719418201086    4.927706763603
 C   -0.857931631036    1.411338812725    4.919251910445
 H   -1.667985159823    2.137919613827    4.923300048308
 H   -2.003294204974   -0.405930869909    4.896613519968
CS   -1.076101468677    0.085076333613   -4.995708006106
