13

 H    0.585017767846    4.435065580019    0.000000000000
 H    2.108187767846    4.239865580019    0.918550000000
 H    2.108187767846    4.239865580019   -0.918550000000
 C    1.576747767846    3.971455580019    0.000000000000
 S    1.262247767846    2.173885580019    0.000000000000
 H    2.490687767846    1.627195580019    0.000000000000
RB   -0.238252232154   -0.410324419981    0.000000000000
 S   -0.840812140446   -1.448072730949    0.000000000000
 H   -2.069250268637   -0.901389977145    0.000000000000
 C   -1.155306821542   -3.245648907350    0.000000000000
 H   -0.163566143677   -3.709252175639    0.000000000000
 H   -1.686746830264   -3.514053701789   -0.918556051829
 H   -1.686746830264   -3.514053701789    0.918556051829
