13

 H    0.598340940913    4.458011182867    0.000000000000
 H    2.121510940913    4.262811182867    0.918550000000
 H    2.121510940913    4.262811182867   -0.918550000000
 C    1.590070940913    3.994401182867    0.000000000000
 S    1.275570940913    2.196831182867    0.000000000000
 H    2.504010940913    1.650141182867    0.000000000000
RB   -0.224929059087   -0.387378817133    0.000000000000
 S   -0.877702293070   -1.511606154016    0.000000000000
 H   -2.106140421261   -0.964923400212    0.000000000000
 C   -1.192196974165   -3.309182330417    0.000000000000
 H   -0.200456296301   -3.772785598706    0.000000000000
 H   -1.723636982888   -3.577587124856   -0.918556051829
 H   -1.723636982888   -3.577587124856    0.918556051829
