13

 H    0.624987287048    4.503902388561    0.000000000000
 H    2.148157287048    4.308702388561    0.918550000000
 H    2.148157287048    4.308702388561   -0.918550000000
 C    1.616717287048    4.040292388561    0.000000000000
 S    1.302217287048    2.242722388561    0.000000000000
 H    2.530657287048    1.696032388561    0.000000000000
RB   -0.198282712952   -0.341487611439    0.000000000000
 S   -0.951482598317   -1.638673000149    0.000000000000
 H   -2.179920726508   -1.091990246345    0.000000000000
 C   -1.265977279413   -3.436249176550    0.000000000000
 H   -0.274236601548   -3.899852444840    0.000000000000
 H   -1.797417288135   -3.704653970989   -0.918556051829
 H   -1.797417288135   -3.704653970989    0.918556051829
