13

 H    0.638310460116    4.526847991409    0.000000000000
 H    2.161480460116    4.331647991409    0.918550000000
 H    2.161480460116    4.331647991409   -0.918550000000
 C    1.630040460116    4.063237991409    0.000000000000
 S    1.315540460116    2.265667991409    0.000000000000
 H    2.543980460116    1.718977991409    0.000000000000
RB   -0.184959539884   -0.318542008591    0.000000000000
 S   -0.988372750941   -1.702206423216    0.000000000000
 H   -2.216810879132   -1.155523669412    0.000000000000
 C   -1.302867432036   -3.499782599617    0.000000000000
 H   -0.311126754172   -3.963385867906    0.000000000000
 H   -1.834307440759   -3.768187394056   -0.918556051829
 H   -1.834307440759   -3.768187394056    0.918556051829
