13

 H    0.664956806250    4.572739197104    0.000000000000
 H    2.188126806250    4.377539197104    0.918550000000
 H    2.188126806250    4.377539197104   -0.918550000000
 C    1.656686806250    4.109129197104    0.000000000000
 S    1.342186806250    2.311559197104    0.000000000000
 H    2.570626806250    1.764869197104    0.000000000000
RB   -0.158313193750   -0.272650802896    0.000000000000
 S   -1.062153056188   -1.829273269350    0.000000000000
 H   -2.290591184379   -1.282590515546    0.000000000000
 C   -1.376647737284   -3.626849445750    0.000000000000
 H   -0.384907059419   -4.090452714040    0.000000000000
 H   -1.908087746006   -3.895254240190   -0.918556051829
 H   -1.908087746006   -3.895254240190    0.918556051829
