13

 H    0.731572671587    4.687467211340    0.000000000000
 H    2.254742671587    4.492267211340    0.918550000000
 H    2.254742671587    4.492267211340   -0.918550000000
 C    1.723302671587    4.223857211340    0.000000000000
 S    1.408802671587    2.426287211340    0.000000000000
 H    2.637242671587    1.879597211340    0.000000000000
RB   -0.091697328413   -0.157922788660    0.000000000000
 S   -1.246603819307   -2.146940384683    0.000000000000
 H   -2.475041947498   -1.600257630879    0.000000000000
 C   -1.561098500402   -3.944516561084    0.000000000000
 H   -0.569357822538   -4.408119829373    0.000000000000
 H   -2.092538509124   -4.212921355523   -0.918556051829
 H   -2.092538509124   -4.212921355523    0.918556051829
