13

 H    0.744895844655    4.710412814188    0.000000000000
 H    2.268065844655    4.515212814188    0.918550000000
 H    2.268065844655    4.515212814188   -0.918550000000
 C    1.736625844655    4.246802814188    0.000000000000
 S    1.422125844655    2.449232814188    0.000000000000
 H    2.650565844655    1.902542814188    0.000000000000
RB   -0.078374155345   -0.134977185812    0.000000000000
 S   -1.283493971930   -2.210473807750    0.000000000000
 H   -2.511932100121   -1.663791053946    0.000000000000
 C   -1.597988653026   -4.008049984150    0.000000000000
 H   -0.606247975161   -4.471653252440    0.000000000000
 H   -2.129428661748   -4.276454778590   -0.918556051829
 H   -2.129428661748   -4.276454778590    0.918556051829
