13

 H    0.784865363857    4.779249622730    0.000000000000
 H    2.308035363857    4.584049622730    0.918550000000
 H    2.308035363857    4.584049622730   -0.918550000000
 C    1.776595363857    4.315639622730    0.000000000000
 S    1.462095363857    2.518069622730    0.000000000000
 H    2.690535363857    1.971379622730    0.000000000000
RB   -0.038404636143   -0.066140377270    0.000000000000
 S   -1.394164429801   -2.401074076950    0.000000000000
 H   -2.622602557992   -1.854391323146    0.000000000000
 C   -1.708659110897   -4.198650253351    0.000000000000
 H   -0.716918433032   -4.662253521640    0.000000000000
 H   -2.240099119619   -4.467055047790   -0.918556051829
 H   -2.240099119619   -4.467055047790    0.918556051829
