13

 H    0.811511709991    4.825140828424    0.000000000000
 H    2.334681709991    4.629940828424    0.918550000000
 H    2.334681709991    4.629940828424   -0.918550000000
 C    1.803241709991    4.361530828424    0.000000000000
 S    1.488741709991    2.563960828424    0.000000000000
 H    2.717181709991    2.017270828424    0.000000000000
RB   -0.011758290009   -0.020249171576    0.000000000000
 S   -1.467944735049   -2.528140923084    0.000000000000
 H   -2.696382863240   -1.981458169279    0.000000000000
 C   -1.782439416144   -4.325717099484    0.000000000000
 H   -0.790698738280   -4.789320367774    0.000000000000
 H   -2.313879424866   -4.594121893924   -0.918556051829
 H   -2.313879424866   -4.594121893924    0.918556051829
