13

 H    0.824834883059    4.848086431272    0.000000000000
 H    2.348004883059    4.652886431272    0.918550000000
 H    2.348004883059    4.652886431272   -0.918550000000
 C    1.816564883059    4.384476431272    0.000000000000
 S    1.502064883059    2.586906431272    0.000000000000
 H    2.730504883059    2.040216431272    0.000000000000
RB    0.001564883059    0.002696431272    0.000000000000
 S   -1.504834887672   -2.591674346150    0.000000000000
 H   -2.733273015863   -2.044991592346    0.000000000000
 C   -1.819329568768   -4.389250522551    0.000000000000
 H   -0.827588890903   -4.852853790840    0.000000000000
 H   -2.350769577490   -4.657655316990   -0.918556051829
 H   -2.350769577490   -4.657655316990    0.918556051829
