13

 H    0.838158056126    4.871032034119    0.000000000000
 H    2.361328056126    4.675832034119    0.918550000000
 H    2.361328056126    4.675832034119   -0.918550000000
 C    1.829888056126    4.407422034119    0.000000000000
 S    1.515388056126    2.609852034119    0.000000000000
 H    2.743828056126    2.063162034119    0.000000000000
RB    0.014888056126    0.025642034119    0.000000000000
 S   -1.541725040296   -2.655207769217    0.000000000000
 H   -2.770163168487   -2.108525015413    0.000000000000
 C   -1.856219721392   -4.452783945617    0.000000000000
 H   -0.864479043527   -4.916387213907    0.000000000000
 H   -2.387659730114   -4.721188740057   -0.918556051829
 H   -2.387659730114   -4.721188740057    0.918556051829
