13

 H    0.904773921463    4.985760048356    0.000000000000
 H    2.427943921463    4.790560048356    0.918550000000
 H    2.427943921463    4.790560048356   -0.918550000000
 C    1.896503921463    4.522150048356    0.000000000000
 S    1.582003921463    2.724580048356    0.000000000000
 H    2.810443921463    2.177890048356    0.000000000000
RB    0.081503921463    0.140370048356    0.000000000000
 S   -1.726175803414   -2.972874884551    0.000000000000
 H   -2.954613931605   -2.426192130747    0.000000000000
 C   -2.040670484510   -4.770451060951    0.000000000000
 H   -1.048929806645   -5.234054329241    0.000000000000
 H   -2.572110493232   -5.038855855391   -0.918556051829
 H   -2.572110493232   -5.038855855391    0.918556051829
