13

 H    0.971389786800    5.100488062592    0.000000000000
 H    2.494559786800    4.905288062592    0.918550000000
 H    2.494559786800    4.905288062592   -0.918550000000
 C    1.963119786800    4.636878062592    0.000000000000
 S    1.648619786800    2.839308062592    0.000000000000
 H    2.877059786800    2.292618062592    0.000000000000
RB    0.148119786800    0.255098062592    0.000000000000
 S   -1.910626566533   -3.290541999884    0.000000000000
 H   -3.139064694724   -2.743859246080    0.000000000000
 C   -2.225121247628   -5.088118176285    0.000000000000
 H   -1.233380569764   -5.551721444574    0.000000000000
 H   -2.756561256351   -5.356522970724   -0.918556051829
 H   -2.756561256351   -5.356522970724    0.918556051829
