13

 H    0.998036132935    5.146379268287    0.000000000000
 H    2.521206132935    4.951179268287    0.918550000000
 H    2.521206132935    4.951179268287   -0.918550000000
 C    1.989766132935    4.682769268287    0.000000000000
 S    1.675266132935    2.885199268287    0.000000000000
 H    2.903706132935    2.338509268287    0.000000000000
RB    0.174766132935    0.300989268287    0.000000000000
 S   -1.984406871780   -3.417608846018    0.000000000000
 H   -3.212844999971   -2.870926092214    0.000000000000
 C   -2.298901552876   -5.215185022418    0.000000000000
 H   -1.307160875011   -5.678788290708    0.000000000000
 H   -2.830341561598   -5.483589816858   -0.918556051829
 H   -2.830341561598   -5.483589816858    0.918556051829
