13

 H    1.011359306002    5.169324871134    0.000000000000
 H    2.534529306002    4.974124871134    0.918550000000
 H    2.534529306002    4.974124871134   -0.918550000000
 C    2.003089306002    4.705714871134    0.000000000000
 S    1.688589306002    2.908144871134    0.000000000000
 H    2.917029306002    2.361454871134    0.000000000000
RB    0.188089306002    0.323934871134    0.000000000000
 S   -2.021297024404   -3.481142269084    0.000000000000
 H   -3.249735152595   -2.934459515280    0.000000000000
 C   -2.335791705499   -5.278718445485    0.000000000000
 H   -1.344051027635   -5.742321713774    0.000000000000
 H   -2.867231714222   -5.547123239924   -0.918556051829
 H   -2.867231714222   -5.547123239924    0.918556051829
