13

 H    1.024682479069    5.192270473982    0.000000000000
 H    2.547852479069    4.997070473982    0.918550000000
 H    2.547852479069    4.997070473982   -0.918550000000
 C    2.016412479069    4.728660473982    0.000000000000
 S    1.701912479069    2.931090473982    0.000000000000
 H    2.930352479069    2.384400473982    0.000000000000
RB    0.201412479069    0.346880473982    0.000000000000
 S   -2.058187177028   -3.544675692151    0.000000000000
 H   -3.286625305218   -2.997992938347    0.000000000000
 C   -2.372681858123   -5.342251868552    0.000000000000
 H   -1.380941180258   -5.805855136841    0.000000000000
 H   -2.904121866845   -5.610656662991   -0.918556051829
 H   -2.904121866845   -5.610656662991    0.918556051829
