13

 H    1.038005652137    5.215216076829    0.000000000000
 H    2.561175652137    5.020016076829    0.918550000000
 H    2.561175652137    5.020016076829   -0.918550000000
 C    2.029735652137    4.751606076829    0.000000000000
 S    1.715235652137    2.954036076829    0.000000000000
 H    2.943675652137    2.407346076829    0.000000000000
RB    0.214735652137    0.369826076829    0.000000000000
 S   -2.095077329651   -3.608209115218    0.000000000000
 H   -3.323515457842   -3.061526361414    0.000000000000
 C   -2.409572010747   -5.405785291618    0.000000000000
 H   -1.417831332882   -5.869388559908    0.000000000000
 H   -2.941012019469   -5.674190086058   -0.918556051829
 H   -2.941012019469   -5.674190086058    0.918556051829
