13

 H    1.064651998272    5.261107282524    0.000000000000
 H    2.587821998272    5.065907282524    0.918550000000
 H    2.587821998272    5.065907282524   -0.918550000000
 C    2.056381998272    4.797497282524    0.000000000000
 S    1.741881998272    2.999927282524    0.000000000000
 H    2.970321998272    2.453237282524    0.000000000000
RB    0.241381998272    0.415717282524    0.000000000000
 S   -2.168857634899   -3.735275961351    0.000000000000
 H   -3.397295763089   -3.188593207547    0.000000000000
 C   -2.483352315994   -5.532852137752    0.000000000000
 H   -1.491611638129   -5.996455406041    0.000000000000
 H   -3.014792324716   -5.801256932191   -0.918556051829
 H   -3.014792324716   -5.801256932191    0.918556051829
