13

 H    1.091298344406    5.306998488219    0.000000000000
 H    2.614468344406    5.111798488219    0.918550000000
 H    2.614468344406    5.111798488219   -0.918550000000
 C    2.083028344406    4.843388488219    0.000000000000
 S    1.768528344406    3.045818488219    0.000000000000
 H    2.996968344406    2.499128488219    0.000000000000
RB    0.268028344406    0.461608488219    0.000000000000
 S   -2.242637940146   -3.862342807485    0.000000000000
 H   -3.471076068337   -3.315660053681    0.000000000000
 C   -2.557132621241   -5.659918983885    0.000000000000
 H   -1.565391943377   -6.123522252175    0.000000000000
 H   -3.088572629964   -5.928323778325   -0.918556051829
 H   -3.088572629964   -5.928323778325    0.918556051829
