13

 H    1.117944690541    5.352889693913    0.000000000000
 H    2.641114690541    5.157689693913    0.918550000000
 H    2.641114690541    5.157689693913   -0.918550000000
 C    2.109674690541    4.889279693913    0.000000000000
 S    1.795174690541    3.091709693913    0.000000000000
 H    3.023614690541    2.545019693913    0.000000000000
RB    0.294674690541    0.507499693913    0.000000000000
 S   -2.316418245393   -3.989409653618    0.000000000000
 H   -3.544856373584   -3.442726899814    0.000000000000
 C   -2.630912926489   -5.786985830019    0.000000000000
 H   -1.639172248624   -6.250589098308    0.000000000000
 H   -3.162352935211   -6.055390624458   -0.918556051829
 H   -3.162352935211   -6.055390624458    0.918556051829
