13

 H    1.157914209743    5.421726502455    0.000000000000
 H    2.681084209743    5.226526502455    0.918550000000
 H    2.681084209743    5.226526502455   -0.918550000000
 C    2.149644209743    4.958116502455    0.000000000000
 S    1.835144209743    3.160546502455    0.000000000000
 H    3.063584209743    2.613856502455    0.000000000000
RB    0.334644209743    0.576336502455    0.000000000000
 S   -2.427088703264   -4.180009922818    0.000000000000
 H   -3.655526831455   -3.633327169014    0.000000000000
 C   -2.741583384360   -5.977586099219    0.000000000000
 H   -1.749842706495   -6.441189367508    0.000000000000
 H   -3.273023393082   -6.245990893658   -0.918556051829
 H   -3.273023393082   -6.245990893658    0.918556051829
