13

 H    1.171237382811    5.444672105303    0.000000000000
 H    2.694407382811    5.249472105303    0.918550000000
 H    2.694407382811    5.249472105303   -0.918550000000
 C    2.162967382811    4.981062105303    0.000000000000
 S    1.848467382811    3.183492105303    0.000000000000
 H    3.076907382811    2.636802105303    0.000000000000
RB    0.347967382811    0.599282105303    0.000000000000
 S   -2.463978855888   -4.243543345885    0.000000000000
 H   -3.692416984079   -3.696860592081    0.000000000000
 C   -2.778473536983   -6.041119522285    0.000000000000
 H   -1.786732859119   -6.504722790575    0.000000000000
 H   -3.309913545706   -6.309524316725   -0.918556051829
 H   -3.309913545706   -6.309524316725    0.918556051829
