13

 H    1.224530075080    5.536454516692    0.000000000000
 H    2.747700075080    5.341254516692    0.918550000000
 H    2.747700075080    5.341254516692   -0.918550000000
 C    2.216260075080    5.072844516692    0.000000000000
 S    1.901760075080    3.275274516692    0.000000000000
 H    3.130200075080    2.728584516692    0.000000000000
RB    0.401260075080    0.691064516692    0.000000000000
 S   -2.611539466383   -4.497677038152    0.000000000000
 H   -3.839977594573   -3.950994284348    0.000000000000
 C   -2.926034147478   -6.295253214552    0.000000000000
 H   -1.934293469613   -6.758856482842    0.000000000000
 H   -3.457474156200   -6.563658008992   -0.918556051829
 H   -3.457474156200   -6.563658008992    0.918556051829
