13

 H    1.251176421215    5.582345722387    0.000000000000
 H    2.774346421215    5.387145722387    0.918550000000
 H    2.774346421215    5.387145722387   -0.918550000000
 C    2.242906421215    5.118735722387    0.000000000000
 S    1.928406421215    3.321165722387    0.000000000000
 H    3.156846421215    2.774475722387    0.000000000000
RB    0.427906421215    0.736955722387    0.000000000000
 S   -2.685319771630   -4.624743884285    0.000000000000
 H   -3.913757899821   -4.078061130481    0.000000000000
 C   -2.999814452725   -6.422320060686    0.000000000000
 H   -2.008073774861   -6.885923328975    0.000000000000
 H   -3.531254461448   -6.690724855125   -0.918556051829
 H   -3.531254461448   -6.690724855125    0.918556051829
