13

 H    1.264499594282    5.605291325234    0.000000000000
 H    2.787669594282    5.410091325234    0.918550000000
 H    2.787669594282    5.410091325234   -0.918550000000
 C    2.256229594282    5.141681325234    0.000000000000
 S    1.941729594282    3.344111325234    0.000000000000
 H    3.170169594282    2.797421325234    0.000000000000
RB    0.441229594282    0.759901325234    0.000000000000
 S   -2.722209924254   -4.688277307352    0.000000000000
 H   -3.950648052444   -4.141594553548    0.000000000000
 C   -3.036704605349   -6.485853483752    0.000000000000
 H   -2.044963927484   -6.949456752042    0.000000000000
 H   -3.568144614071   -6.754258278192   -0.918556051829
 H   -3.568144614071   -6.754258278192    0.918556051829
