13

 H    1.277822767350    5.628236928081    0.000000000000
 H    2.800992767350    5.433036928081    0.918550000000
 H    2.800992767350    5.433036928081   -0.918550000000
 C    2.269552767350    5.164626928081    0.000000000000
 S    1.955052767350    3.367056928081    0.000000000000
 H    3.183492767350    2.820366928081    0.000000000000
RB    0.454552767350    0.782846928081    0.000000000000
 S   -2.759100076877   -4.751810730419    0.000000000000
 H   -3.987538205068   -4.205127976615    0.000000000000
 C   -3.073594757973   -6.549386906819    0.000000000000
 H   -2.081854080108   -7.012990175109    0.000000000000
 H   -3.605034766695   -6.817791701259   -0.918556051829
 H   -3.605034766695   -6.817791701259    0.918556051829
