13

 H    1.291145940417    5.651182530929    0.000000000000
 H    2.814315940417    5.455982530929    0.918550000000
 H    2.814315940417    5.455982530929   -0.918550000000
 C    2.282875940417    5.187572530929    0.000000000000
 S    1.968375940417    3.390002530929    0.000000000000
 H    3.196815940417    2.843312530929    0.000000000000
RB    0.467875940417    0.805792530929    0.000000000000
 S   -2.795990229501   -4.815344153485    0.000000000000
 H   -4.024428357692   -4.268661399681    0.000000000000
 C   -3.110484910596   -6.612920329886    0.000000000000
 H   -2.118744232732   -7.076523598176    0.000000000000
 H   -3.641924919319   -6.881325124325   -0.918556051829
 H   -3.641924919319   -6.881325124325    0.918556051829
