13

 H    1.304469113484    5.674128133776    0.000000000000
 H    2.827639113484    5.478928133776    0.918550000000
 H    2.827639113484    5.478928133776   -0.918550000000
 C    2.296199113484    5.210518133776    0.000000000000
 S    1.981699113484    3.412948133776    0.000000000000
 H    3.210139113484    2.866258133776    0.000000000000
RB    0.481199113484    0.828738133776    0.000000000000
 S   -2.832880382125   -4.878877576552    0.000000000000
 H   -4.061318510315   -4.332194822748    0.000000000000
 C   -3.147375063220   -6.676453752953    0.000000000000
 H   -2.155634385355   -7.140057021242    0.000000000000
 H   -3.678815071942   -6.944858547392   -0.918556051829
 H   -3.678815071942   -6.944858547392    0.918556051829
