13

 H    1.331115459619    5.720019339471    0.000000000000
 H    2.854285459619    5.524819339471    0.918550000000
 H    2.854285459619    5.524819339471   -0.918550000000
 C    2.322845459619    5.256409339471    0.000000000000
 S    2.008345459619    3.458839339471    0.000000000000
 H    3.236785459619    2.912149339471    0.000000000000
RB    0.507845459619    0.874629339471    0.000000000000
 S   -2.906660687372   -5.005944422686    0.000000000000
 H   -4.135098815563   -4.459261668882    0.000000000000
 C   -3.221155368467   -6.803520599086    0.000000000000
 H   -2.229414690603   -7.267123867376    0.000000000000
 H   -3.752595377190   -7.071925393526   -0.918556051829
 H   -3.752595377190   -7.071925393526    0.918556051829
