13

 H    1.344438632686    5.742964942318    0.000000000000
 H    2.867608632686    5.547764942318    0.918550000000
 H    2.867608632686    5.547764942318   -0.918550000000
 C    2.336168632686    5.279354942318    0.000000000000
 S    2.021668632686    3.481784942318    0.000000000000
 H    3.250108632686    2.935094942318    0.000000000000
RB    0.521168632686    0.897574942318    0.000000000000
 S   -2.943550839996   -5.069477845752    0.000000000000
 H   -4.171988968187   -4.522795091948    0.000000000000
 C   -3.258045521091   -6.867054022153    0.000000000000
 H   -2.266304843226   -7.330657290442    0.000000000000
 H   -3.789485529813   -7.135458816592   -0.918556051829
 H   -3.789485529813   -7.135458816592    0.918556051829
