13

 H    1.371084978821    5.788856148013    0.000000000000
 H    2.894254978821    5.593656148013    0.918550000000
 H    2.894254978821    5.593656148013   -0.918550000000
 C    2.362814978821    5.325246148013    0.000000000000
 S    2.048314978821    3.527676148013    0.000000000000
 H    3.276754978821    2.980986148013    0.000000000000
RB    0.547814978821    0.943466148013    0.000000000000
 S   -3.017331145243   -5.196544691886    0.000000000000
 H   -4.245769273434   -4.649861938082    0.000000000000
 C   -3.331825826338   -6.994120868286    0.000000000000
 H   -2.340085148474   -7.457724136576    0.000000000000
 H   -3.863265835061   -7.262525662726   -0.918556051829
 H   -3.863265835061   -7.262525662726    0.918556051829
