13

 H    1.411054498023    5.857692956555    0.000000000000
 H    2.934224498023    5.662492956555    0.918550000000
 H    2.934224498023    5.662492956555   -0.918550000000
 C    2.402784498023    5.394082956555    0.000000000000
 S    2.088284498023    3.596512956555    0.000000000000
 H    3.316724498023    3.049822956555    0.000000000000
RB    0.587784498023    1.012302956555    0.000000000000
 S   -3.128001603114   -5.387144961086    0.000000000000
 H   -4.356439731305   -4.840462207282    0.000000000000
 C   -3.442496284209   -7.184721137486    0.000000000000
 H   -2.450755606345   -7.648324405776    0.000000000000
 H   -3.973936292932   -7.453125931926   -0.918556051829
 H   -3.973936292932   -7.453125931926    0.918556051829
