13

 H    1.437700844158    5.903584162249    0.000000000000
 H    2.960870844158    5.708384162249    0.918550000000
 H    2.960870844158    5.708384162249   -0.918550000000
 C    2.429430844158    5.439974162249    0.000000000000
 S    2.114930844158    3.642404162249    0.000000000000
 H    3.343370844158    3.095714162249    0.000000000000
RB    0.614430844158    1.058194162249    0.000000000000
 S   -3.201781908361   -5.514211807219    0.000000000000
 H   -4.430220036552   -4.967529053415    0.000000000000
 C   -3.516276589457   -7.311787983620    0.000000000000
 H   -2.524535911592   -7.775391251909    0.000000000000
 H   -4.047716598179   -7.580192778059   -0.918556051829
 H   -4.047716598179   -7.580192778059    0.918556051829
