13

 H    1.504316709495    6.018312176486    0.000000000000
 H    3.027486709495    5.823112176486    0.918550000000
 H    3.027486709495    5.823112176486   -0.918550000000
 C    2.496046709495    5.554702176486    0.000000000000
 S    2.181546709495    3.757132176486    0.000000000000
 H    3.409986709495    3.210442176486    0.000000000000
RB    0.681046709495    1.172922176486    0.000000000000
 S   -3.386232671480   -5.831878922553    0.000000000000
 H   -4.614670799671   -5.285196168749    0.000000000000
 C   -3.700727352575   -7.629455098953    0.000000000000
 H   -2.708986674710   -8.093058367243    0.000000000000
 H   -4.232167361297   -7.897859893393   -0.918556051829
 H   -4.232167361297   -7.897859893393    0.918556051829
