13

 H    1.570932574832    6.133040190723    0.000000000000
 H    3.094102574832    5.937840190723    0.918550000000
 H    3.094102574832    5.937840190723   -0.918550000000
 C    2.562662574832    5.669430190723    0.000000000000
 S    2.248162574832    3.871860190723    0.000000000000
 H    3.476602574832    3.325170190723    0.000000000000
RB    0.747662574832    1.287650190723    0.000000000000
 S   -3.570683434598   -6.149546037886    0.000000000000
 H   -4.799121562789   -5.602863284082    0.000000000000
 C   -3.885178115693   -7.947122214287    0.000000000000
 H   -2.893437437829   -8.410725482577    0.000000000000
 H   -4.416618124416   -8.215527008727   -0.918556051829
 H   -4.416618124416   -8.215527008727    0.918556051829
