13

 H    1.584255747899    6.155985793570    0.000000000000
 H    3.107425747899    5.960785793570    0.918550000000
 H    3.107425747899    5.960785793570   -0.918550000000
 C    2.575985747899    5.692375793570    0.000000000000
 S    2.261485747899    3.894805793570    0.000000000000
 H    3.489925747899    3.348115793570    0.000000000000
RB    0.760985747899    1.310595793570    0.000000000000
 S   -3.607573587222   -6.213079460953    0.000000000000
 H   -4.836011715413   -5.666396707149    0.000000000000
 C   -3.922068268317   -8.010655637354    0.000000000000
 H   -2.930327590452   -8.474258905643    0.000000000000
 H   -4.453508277039   -8.279060431793   -0.918556051829
 H   -4.453508277039   -8.279060431793    0.918556051829
