13

 H    1.597578920967    6.178931396418    0.000000000000
 H    3.120748920967    5.983731396418    0.918550000000
 H    3.120748920967    5.983731396418   -0.918550000000
 C    2.589308920967    5.715321396418    0.000000000000
 S    2.274808920967    3.917751396418    0.000000000000
 H    3.503248920967    3.371061396418    0.000000000000
RB    0.774308920967    1.333541396418    0.000000000000
 S   -3.644463739845   -6.276612884020    0.000000000000
 H   -4.872901868036   -5.729930130216    0.000000000000
 C   -3.958958420941   -8.074189060420    0.000000000000
 H   -2.967217743076   -8.537792328710    0.000000000000
 H   -4.490398429663   -8.342593854860   -0.918556051829
 H   -4.490398429663   -8.342593854860    0.918556051829
