13

 H    1.610902094034    6.201876999265    0.000000000000
 H    3.134072094034    6.006676999265    0.918550000000
 H    3.134072094034    6.006676999265   -0.918550000000
 C    2.602632094034    5.738266999265    0.000000000000
 S    2.288132094034    3.940696999265    0.000000000000
 H    3.516572094034    3.394006999265    0.000000000000
RB    0.787632094034    1.356486999265    0.000000000000
 S   -3.681353892469   -6.340146307087    0.000000000000
 H   -4.909792020660   -5.793463553283    0.000000000000
 C   -3.995848573564   -8.137722483487    0.000000000000
 H   -3.004107895700   -8.601325751777    0.000000000000
 H   -4.527288582287   -8.406127277927   -0.918556051829
 H   -4.527288582287   -8.406127277927    0.918556051829
