13

 H    1.624225267101    6.224822602112    0.000000000000
 H    3.147395267101    6.029622602112    0.918550000000
 H    3.147395267101    6.029622602112   -0.918550000000
 C    2.615955267101    5.761212602112    0.000000000000
 S    2.301455267101    3.963642602112    0.000000000000
 H    3.529895267101    3.416952602112    0.000000000000
RB    0.800955267101    1.379432602112    0.000000000000
 S   -3.718244045093   -6.403679730153    0.000000000000
 H   -4.946682173284   -5.856996976349    0.000000000000
 C   -4.032738726188   -8.201255906554    0.000000000000
 H   -3.040998048323   -8.664859174844    0.000000000000
 H   -4.564178734910   -8.469660700993   -0.918556051829
 H   -4.564178734910   -8.469660700993    0.918556051829
