13

 H    1.637548440169    6.247768204960    0.000000000000
 H    3.160718440169    6.052568204960    0.918550000000
 H    3.160718440169    6.052568204960   -0.918550000000
 C    2.629278440169    5.784158204960    0.000000000000
 S    2.314778440169    3.986588204960    0.000000000000
 H    3.543218440169    3.439898204960    0.000000000000
RB    0.814278440169    1.402378204960    0.000000000000
 S   -3.755134197716   -6.467213153220    0.000000000000
 H   -4.983572325907   -5.920530399416    0.000000000000
 C   -4.069628878812   -8.264789329621    0.000000000000
 H   -3.077888200947   -8.728392597910    0.000000000000
 H   -4.601068887534   -8.533194124060   -0.918556051829
 H   -4.601068887534   -8.533194124060    0.918556051829
