13

 H    1.650871613236    6.270713807807    0.000000000000
 H    3.174041613236    6.075513807807    0.918550000000
 H    3.174041613236    6.075513807807   -0.918550000000
 C    2.642601613236    5.807103807807    0.000000000000
 S    2.328101613236    4.009533807807    0.000000000000
 H    3.556541613236    3.462843807807    0.000000000000
RB    0.827601613236    1.425323807807    0.000000000000
 S   -3.792024350340   -6.530746576287    0.000000000000
 H   -5.020462478531   -5.984063822483    0.000000000000
 C   -4.106519031435   -8.328322752687    0.000000000000
 H   -3.114778353571   -8.791926020977    0.000000000000
 H   -4.637959040158   -8.596727547127   -0.918556051829
 H   -4.637959040158   -8.596727547127    0.918556051829
