26

 N   -4.621835382801    2.752186694388   -0.035890030109
 C   -3.441615382801    3.423296694388   -0.003870030109
 H   -3.510965382801    4.512466694388   -0.001820030109
 C   -4.727145382801    1.357446694388   -0.048590030109
 O   -5.768755382801    0.738996694388   -0.078340030109
 N   -3.458885382801    0.731326694388   -0.024510030109
 H   -3.500035382801   -0.287553305612   -0.025350030109
 C   -2.230855382801    1.335366694388    0.013149969891
 O   -1.178215382801    0.602426694388    0.032779969891
 C   -2.232005382801    2.764896694388    0.023569969891
 H   -1.295785382801    3.317476694388    0.048919969891
 H   -5.508935382801    3.254046694388   -0.052800030109
NA    0.276744617199   -0.031713305612    1.656479969891
NA    0.132044617199   -0.177153305612   -1.672840030109
 O    1.094469416084   -0.559484456942   -0.034548611099
 C    2.147118463956   -1.292422064394   -0.014920710111
 N    3.374732036832   -0.688595322802    0.036881465796
 H    3.415656087215    0.330233825996    0.047875635186
 C    4.642938036803   -1.314727140117    0.063445520127
 O    5.684188121028   -0.696436997958    0.106216886859
 N    4.538019579882   -2.709296942144    0.036525312649
 H    5.425095836572   -3.211158797809    0.054558677436
 C    3.358189667245   -3.380241649443   -0.009967058700
 H    3.427786803616   -4.469322607698   -0.022107152392
 C    2.148652695257   -2.721787128847   -0.039190496236
 H    1.212741788387   -3.274240104928   -0.076210605917
