26

 N   -4.658774337308    2.771057136808   -0.034396199340
 C   -3.478554337308    3.442167136808   -0.002376199340
 H   -3.547904337308    4.531337136808   -0.000326199340
 C   -4.764084337308    1.376317136808   -0.047096199340
 O   -5.805694337308    0.757867136808   -0.076846199340
 N   -3.495824337308    0.750197136808   -0.023016199340
 H   -3.536974337308   -0.268682863192   -0.023856199340
 C   -2.267794337308    1.354237136808    0.014643800660
 O   -1.215154337308    0.621297136808    0.034273800660
 C   -2.268944337308    2.783767136808    0.025063800660
 H   -1.332724337308    3.336347136808    0.050413800660
 H   -5.545874337308    3.272917136808   -0.051306199340
NA    0.239805662692   -0.012842863192    1.657973800660
NA    0.095105662692   -0.158282863192   -1.671346199340
 O    1.146537941465   -0.586119129655   -0.035691638429
 C    2.199186989337   -1.319056737107   -0.016063737441
 N    3.426885105168   -0.715179742674    0.033080901942
 H    3.467856503963    0.303666307301    0.042166881896
 C    4.695103235724   -1.341306672320    0.059176903548
 O    5.736427031142   -0.722976208077    0.099500813143
 N    4.590104947780   -2.735919519375    0.034930681999
 H    5.477186898016   -3.237778847612    0.052753078736
 C    3.410194987151   -3.406906372668   -0.008842496046
 H    3.479740926997   -4.496010085558   -0.019086602681
 C    2.200643524364   -2.748463699433   -0.037731188151
 H    1.264668278039   -3.300950328996   -0.072557432882
