26

 N   -4.732650115181    2.808800528741   -0.031429212579
 C   -3.552430115181    3.479910528741    0.000590787421
 H   -3.621780115181    4.569080528741    0.002640787421
 C   -4.837960115181    1.414060528741   -0.044129212579
 O   -5.879570115181    0.795610528741   -0.073879212579
 N   -3.569700115181    0.787940528741   -0.020049212579
 H   -3.610850115181   -0.230939471259   -0.020889212579
 C   -2.341670115181    1.391980528741    0.017610787421
 O   -1.289030115181    0.659040528741    0.037240787421
 C   -2.342820115181    2.821510528741    0.028030787421
 H   -1.406600115181    3.374090528741    0.053380787421
 H   -5.619750115181    3.310660528741   -0.048339212579
NA    0.165929884819    0.024900528741    1.660940787421
NA    0.021229884819   -0.120539471259   -1.668379212579
 O    1.250677123369   -0.639385967988   -0.037998367866
 C    2.303326171241   -1.372323575440   -0.018370466878
 N    3.531179307350   -0.768362596466    0.025596516474
 H    3.572235995045    0.250506390483    0.030964936026
 C    4.799419364686   -1.394482454483    0.050780645685
 O    5.840877843583   -0.776086251434    0.086336241433
 N    4.694275296293   -2.789165159104    0.031744069993
 H    5.581367569733   -3.291020668011    0.049155450814
 C    3.514219297313   -3.460219882045   -0.006731398666
 H    3.583672406819   -4.549357998358   -0.013281671430
 C    2.304640823579   -2.801798535657   -0.034967866208
 H    1.368548227516   -3.354339240724   -0.065519883167
