26

 N   -4.880393971291    2.884296281663   -0.025573253287
 C   -3.700173971291    3.555406281663    0.006446746713
 H   -3.769523971291    4.644576281663    0.008496746713
 C   -4.985703971291    1.489556281663   -0.038273253287
 O   -6.027313971291    0.871106281663   -0.068023253287
 N   -3.717443971291    0.863436281663   -0.014193253287
 H   -3.758593971291   -0.155443718337   -0.015033253287
 C   -2.489413971291    1.467476281663    0.023466746713
 O   -1.436773971291    0.734536281663    0.043096746713
 C   -2.490563971291    2.897006281663    0.033886746713
 H   -1.554343971291    3.449586281663    0.059236746713
 H   -5.767493971291    3.386156281663   -0.042483253287
NA    0.018186028709    0.100396281663    1.666796746713
NA   -0.126513971291   -0.045043718337   -1.662523253287
 O    1.458963186813   -0.745910675597   -0.042689840970
 C    2.511612234685   -1.478848283049   -0.023061939981
 N    3.739724608961   -0.874778411696    0.011068255962
 H    3.780918006312    0.144097792246    0.009374398003
 C    5.008000111520   -1.500893754002    0.034520073333
 O    6.049681981485   -0.882419311500    0.061016740249
 N    4.902614576217   -2.895658205950    0.025380848480
 H    5.789723661998   -3.397510479292    0.042011400640
 C    3.722317220124   -3.566790039390   -0.003030011132
 H    3.791619131514   -4.655957383647   -0.002562911317
 C    2.512691874195   -2.908402823286   -0.030027191644
 H    1.576405451948   -3.461004445905   -0.052459023835
