26

 N   -4.917328487456    2.903171888582   -0.024124601166
 C   -3.737108487456    3.574281888582    0.007895398834
 H   -3.806458487456    4.663451888582    0.009945398834
 C   -5.022638487456    1.508431888582   -0.036824601166
 O   -6.064248487456    0.889981888582   -0.066574601166
 N   -3.754378487456    0.882311888582   -0.012744601166
 H   -3.795528487456   -0.136568111418   -0.013584601166
 C   -2.526348487456    1.486351888582    0.024915398834
 O   -1.473708487456    0.753411888582    0.044545398834
 C   -2.527498487456    2.915881888582    0.035335398834
 H   -1.591278487456    3.468461888582    0.060685398834
 H   -5.804428487456    3.405031888582   -0.041034601166
NA   -0.018748487456    0.119271888582    1.668245398834
NA   -0.163448487456   -0.026168111418   -1.661074601166
 O    1.511036150537   -0.772540183812   -0.043878046948
 C    2.563685198409   -1.505477791264   -0.024250145959
 N    3.791852832322   -0.901391682466    0.007522794829
 H    3.833074062949    0.117479177038    0.004136661574
 C    5.060135620212   -1.527507677920    0.030559508524
 O    6.101864702304   -0.909023563133    0.054885356507
 N    4.954699126122   -2.922281802854    0.023792010693
 H    5.841811695966   -3.424134083052    0.040235455699
 C    3.774350954241   -3.593422030797   -0.002207050338
 H    3.843621529098   -4.682589349290   -0.000058402636
 C    2.564715240729   -2.935041750840   -0.028907221867
 H    1.628388036192   -3.487649835764   -0.049393202946
