26

 N   -4.954262473173    2.922048100919   -0.022681789755
 C   -3.774042473173    3.593158100919    0.009338210245
 H   -3.843392473173    4.682328100919    0.011388210245
 C   -5.059572473173    1.527308100919   -0.035381789755
 O   -6.101182473173    0.908858100919   -0.065131789755
 N   -3.791312473173    0.901188100919   -0.011301789755
 H   -3.832462473173   -0.117691899081   -0.012141789755
 C   -2.563282473173    1.505228100919    0.026358210245
 O   -1.510642473173    0.772288100919    0.045988210245
 C   -2.564432473173    2.934758100919    0.036778210245
 H   -1.628212473173    3.487338100919    0.062128210245
 H   -5.841362473173    3.423908100919   -0.039591789755
NA   -0.055682473173    0.138148100919    1.669688210245
NA   -0.200382473173   -0.007291899081   -1.659631789755
 O    1.563109644708   -0.799169086607   -0.045072093635
 C    2.615758692580   -1.532106694059   -0.025444192647
 N    3.843978088405   -0.928008331682    0.004010312834
 H    3.885224836169    0.090854604315   -0.001040187144
 C    5.112267585953   -1.554125623782    0.026638767098
 O    6.154040719616   -0.935635418222    0.048829558073
 N    5.006783575886   -2.948905523506    0.022203922525
 H    5.893899367014   -3.450758105368    0.038463344734
 C    3.826388072668   -3.620050205721   -0.001423077236
 H    3.895629673029   -4.709214848396    0.002379399059
 C    2.616742488335   -2.961676279140   -0.027831119556
 H    1.680377309221   -3.514287652500   -0.046403310508
