26

 N   -5.065061466753    2.978680092478   -0.018387028436
 C   -3.884841466753    3.649790092478    0.013632971564
 H   -3.954191466753    4.738960092478    0.015682971564
 C   -5.170371466753    1.583940092478   -0.031087028436
 O   -6.211981466753    0.965490092478   -0.060837028436
 N   -3.902111466753    0.957820092478   -0.007007028436
 H   -3.943261466753   -0.061059907522   -0.007847028436
 C   -2.674081466753    1.561860092478    0.030652971564
 O   -1.621441466753    0.828920092478    0.050282971564
 C   -2.675231466753    2.991390092478    0.041072971564
 H   -1.739011466753    3.543970092478    0.066422971564
 H   -5.952161466753    3.480540092478   -0.035297028436
NA   -0.166481466753    0.194780092478    1.673982971564
NA   -0.311181466753    0.049340092478   -1.655337028436
 O    1.719333090794   -0.879052440447   -0.048687906614
 C    2.771982138666   -1.611990047899   -0.029060005626
 N    4.000337283584   -1.007876990022   -0.006337002866
 H    4.041647680912    0.010947954302   -0.016219714865
 C    5.268643701899   -1.634001723075    0.015106129379
 O    6.310531347782   -1.015513062236    0.031097920081
 N    5.163036360089   -3.028777381274    0.017443981287
 H    6.050160349970   -3.530632496130    0.033169116226
 C    3.982518308424   -3.699913633397    0.000704077474
 H    4.051686154596   -4.789055614201    0.009308239555
 C    2.772845896370   -3.041555520939   -0.024855712749
 H    1.836382461791   -3.594159206552   -0.037871366562
