26

 N   -5.101993544919    2.997558454969   -0.016966229229
 C   -3.921773544919    3.668668454969    0.015053770771
 H   -3.991123544919    4.757838454969    0.017103770771
 C   -5.207303544919    1.602818454969   -0.029666229229
 O   -6.248913544919    0.984368454969   -0.059416229229
 N   -3.939043544919    0.976698454969   -0.005586229229
 H   -3.980193544919   -0.042181545031   -0.006426229229
 C   -2.711013544919    1.580738454969    0.032073770771
 O   -1.658373544919    0.847798454969    0.051703770771
 C   -2.712163544919    3.010268454969    0.042493770771
 H   -1.775943544919    3.562848454969    0.067843770771
 H   -5.989093544919    3.499418454969   -0.033876229229
NA   -0.203413544919    0.213658454969    1.675403770771
NA   -0.348113544919    0.068218454969   -1.653916229229
 O    1.771408492516   -0.905679193089   -0.049903965506
 C    2.824057540388   -1.638616800541   -0.030276064517
 N    4.052451873724   -1.034505629294   -0.009725195881
 H    4.093779496127   -0.015697701146   -0.021167104318
 C    5.320762939293   -1.660633930322    0.011335469054
 O    6.362683285833   -1.042151871744    0.025326976573
 N    5.215120444300   -3.055401551238    0.015858719757
 H    6.102246713418   -3.557258009460    0.031411455270
 C    4.034567570677   -3.726528301980    0.001341122891
 H    4.103714910154   -4.815658242876    0.011494653650
 C    2.824887083294   -3.068174456767   -0.023944931323
 H    1.888395753358   -3.620770190654   -0.035167620110
