26

 N   -5.138925195052    3.016437293336   -0.015550615596
 C   -3.958705195052    3.687547293336    0.016469384404
 H   -4.028055195052    4.776717293336    0.018519384404
 C   -5.244235195052    1.621697293336   -0.028250615596
 O   -6.285845195052    1.003247293336   -0.058000615596
 N   -3.975975195052    0.995577293336   -0.004170615596
 H   -4.017125195052   -0.023302706664   -0.005010615596
 C   -2.747945195052    1.599617293336    0.033489384404
 O   -1.695305195052    0.866677293336    0.053119384404
 C   -2.749095195052    3.029147293336    0.043909384404
 H   -1.812875195052    3.581727293336    0.069259384404
 H   -6.026025195052    3.518297293336   -0.032460615596
NA   -0.240345195052    0.232537293336    1.676819384404
NA   -0.385045195052    0.087097293336   -1.652500615596
 O    1.823484322272   -0.932305469855   -0.051125209972
 C    2.876133370143   -1.665243077308   -0.031497308984
 N    4.104564071700   -1.061136920113   -0.013084109548
 H    4.145907067578   -0.042348003992   -0.026060441099
 C    5.372879323643   -1.687269288332    0.007600163609
 O    6.414829827437   -1.068796634641    0.019623136632
 N    5.267204445158   -3.082025823074    0.014274124471
 H    6.154332782846   -3.583883853898    0.029657198567
 C    4.086619551388   -3.753139993177    0.001943557210
 H    4.155748277814   -4.842255833462    0.013621849975
 C    2.876931393784   -3.094789949443   -0.023073094603
 H    1.940414425846   -3.647375251797   -0.032531280865
