26

 N   -5.175856434974    3.035316585180   -0.014140068111
 C   -3.995636434974    3.706426585180    0.017879931889
 H   -4.064986434974    4.795596585180    0.019929931889
 C   -5.281166434974    1.640576585180   -0.026840068111
 O   -6.322776434974    1.022126585180   -0.056590068111
 N   -4.012906434974    1.014456585180   -0.002760068111
 H   -4.054056434974   -0.004423414820   -0.003600068111
 C   -2.784876434974    1.618496585180    0.034899931889
 O   -1.732236434974    0.885556585180    0.054529931889
 C   -2.786026434974    3.048026585180    0.045319931889
 H   -1.849806434974    3.600606585180    0.070669931889
 H   -6.062956434974    3.537176585180   -0.031050068111
NA   -0.277276434974    0.251416585180    1.678229931889
NA   -0.421976434974    0.105976585180   -1.651090068111
 O    1.875560562239   -0.958931293144   -0.052351520586
 C    2.928209610110   -1.691868900596   -0.032723619597
 N    4.156673977563   -1.087770736842   -0.016414418301
 H    4.198030575959   -0.069002728090   -0.030900971080
 C    5.424992974937   -1.713907646591    0.003899398499
 O    6.466971199896   -1.095447065879    0.013984854163
 N    5.319288365613   -3.108650192950    0.012690180216
 H    6.206418570256   -3.610510014304    0.027906267778
 C    4.138674134831   -3.779748851829    0.002512178186
 H    4.207786060486   -4.868848632466    0.015691193629
 C    2.928978696115   -3.121402164121   -0.022239305249
 H    1.992438251856   -3.673974674978   -0.029960795551
