26

 N   -5.212787281720    3.054196309138   -0.012734470891
 C   -4.032567281720    3.725306309138    0.019285529109
 H   -4.101917281720    4.814476309138    0.021335529109
 C   -5.318097281720    1.659456309138   -0.025434470891
 O   -6.359707281720    1.041006309138   -0.055184470891
 N   -4.049837281720    1.033336309138   -0.001354470891
 H   -4.090987281720    0.014456309138   -0.002194470891
 C   -2.821807281720    1.637376309138    0.036305529109
 O   -1.769167281720    0.904436309138    0.055935529109
 C   -2.822957281720    3.066906309138    0.046725529109
 H   -1.886737281720    3.619486309138    0.072075529109
 H   -6.099887281720    3.556056309138   -0.029644470891
NA   -0.314207281720    0.270296309138    1.679635529109
NA   -0.458907281720    0.124856309138   -1.649684470891
 O    1.927637195381   -0.985556684319   -0.053582781464
 C    2.980286243253   -1.718494291771   -0.033954880476
 N    4.208781686948   -1.114406959660   -0.019716776554
 H    4.250150193918   -0.095661657850   -0.035689903127
 C    5.477104007847   -1.740548861568    0.000232383363
 O    6.519107620440   -1.122102893644    0.008410628980
 N    5.371372208494   -3.135274657199    0.011106872228
 H    6.258504087128   -3.637136476228    0.026158586884
 C    4.190731210429   -3.806355016019    0.003047759876
 H    4.259828069859   -4.895436874868    0.017704009152
 C    2.981028864402   -3.148011258278   -0.021442692564
 H    2.044467014076   -3.700568731938   -0.027454657020
