26

 N   -5.360507052253    3.129719132197   -0.007159384116
 C   -4.180287052253    3.800829132197    0.024860615884
 H   -4.249637052253    4.889999132197    0.026910615884
 C   -5.465817052253    1.734979132197   -0.019859384116
 O   -6.507427052253    1.116529132197   -0.049609384116
 N   -4.197557052253    1.108859132197    0.004220615884
 H   -4.238707052253    0.089979132197    0.003380615884
 C   -2.969527052253    1.712899132197    0.041880615884
 O   -1.916887052253    0.979959132197    0.061510615884
 C   -2.970677052253    3.142429132197    0.052300615884
 H   -2.034457052253    3.695009132197    0.077650615884
 H   -6.247607052253    3.631579132197   -0.024069384116
NA   -0.461927052253    0.345819132197    1.685210615884
NA   -0.606627052253    0.200379132197   -1.644109384116
 O    2.135947344402   -1.092054321792   -0.058555127085
 C    3.188596392273   -1.824991929244   -0.038927226097
 N    4.417192329434   -1.220973702880   -0.032659131443
 H    4.458592954743   -0.202335462160   -0.054352606654
 C    5.685524077412   -1.847139643321   -0.014113185680
 O    6.727607802560   -1.228775160623   -0.013274185971
 N    5.579706856956   -3.241773389785    0.004779722411
 H    6.466843661798   -3.743645072463    0.019198918639
 C    4.398982389233   -3.912755271776    0.004874392074
 H    4.468034891991   -5.001748606327    0.025215140992
 C    3.189255868155   -3.254419331811   -0.018611474915
 H    2.252627404917   -3.806896304910   -0.018044951644
