26

 N   -5.397436163732    3.148600728978   -0.005776915455
 C   -4.217216163732    3.819710728978    0.026243084545
 H   -4.286566163732    4.908880728978    0.028293084545
 C   -5.502746163732    1.753860728978   -0.018476915455
 O   -6.544356163732    1.135410728978   -0.048226915455
 N   -4.234486163732    1.127740728978    0.005603084545
 H   -4.275636163732    0.108860728978    0.004763084545
 C   -3.006456163732    1.731780728978    0.043263084545
 O   -1.953816163732    0.998840728978    0.062893084545
 C   -3.007606163732    3.161310728978    0.053683084545
 H   -2.071386163732    3.713890728978    0.079033084545
 H   -6.284536163732    3.650460728978   -0.022686915455
NA   -0.498856163732    0.364700728978    1.686593084545
NA   -0.643556163732    0.219260728978   -1.642726915455
 O    2.188025712812   -1.118677840144   -0.059809516523
 C    3.240674760683   -1.851615447596   -0.040181615535
 N    4.469290350727   -1.247620342659   -0.035830901222
 H    4.510695455507   -0.229012520140   -0.058900476450
 C    5.737623570062   -1.873793209788   -0.017622518523
 O    6.779722402678   -1.255454312379   -0.018549132030
 N    5.631790350564   -3.268398276007    0.003199388853
 H    6.518927981483   -3.770272847146    0.017466422628
 C    4.451050430171   -3.939349821143    0.005255616269
 H    4.520095488606   -5.028317225996    0.026963862905
 C    3.241318663083   -3.281014942920   -0.017988553161
 H    2.304677908373   -3.833467187771   -0.015839442421
