26

 N   -5.434364969761    3.167482648687   -0.004398769453
 C   -4.254144969761    3.838592648687    0.027621230547
 H   -4.323494969761    4.927762648687    0.029671230547
 C   -5.539674969761    1.772742648687   -0.017098769453
 O   -6.581284969761    1.154292648687   -0.046848769453
 N   -4.271414969761    1.146622648687    0.006981230547
 H   -4.312564969761    0.127742648687    0.006141230547
 C   -3.043384969761    1.750662648687    0.044641230547
 O   -1.990744969761    1.017722648687    0.064271230547
 C   -3.044534969761    3.180192648687    0.055061230547
 H   -2.108314969761    3.732772648687    0.080411230547
 H   -6.321464969761    3.669342648687   -0.021308769453
NA   -0.535784969761    0.383582648687    1.687971230547
NA   -0.680484969761    0.238142648687   -1.641348769453
 O    2.240104386671   -1.145301035568   -0.061068228620
 C    3.292753434542   -1.878238643020   -0.041440327632
 N    4.521386667861   -1.274268776363   -0.038978264675
 H    4.562794953652   -0.255692684031   -0.063403294821
 C    5.789721034471   -1.900448900038   -0.021102381731
 O    6.831833168691   -1.282137472830   -0.023768145277
 N    5.683873781337   -3.295023237579    0.001619611519
 H    6.571012089812   -3.796900849373    0.015736764769
 C    4.503120394653   -3.965942380433    0.005607993027
 H    4.572159343830   -5.054882487356    0.028663229538
 C    3.293383676249   -3.307608237491   -0.017398092726
 H    2.356732230054   -3.860034091488   -0.013690117910
