26

 N   -5.471293482846    3.186364875891   -0.003024851765
 C   -4.291073482846    3.857474875891    0.028995148235
 H   -4.360423482846    4.946644875891    0.031045148235
 C   -5.576603482846    1.791624875891   -0.015724851765
 O   -6.618213482846    1.173174875891   -0.045474851765
 N   -4.308343482846    1.165504875891    0.008355148235
 H   -4.349493482846    0.146624875891    0.007515148235
 C   -3.080313482846    1.769544875891    0.046015148235
 O   -2.027673482846    1.036604875891    0.065645148235
 C   -3.081463482846    3.199074875891    0.056435148235
 H   -2.145243482846    3.751654875891    0.081785148235
 H   -6.358393482846    3.688224875891   -0.019934851765
NA   -0.572713482846    0.402464875891    1.689345148235
NA   -0.717413482846    0.257024875891   -1.639974851765
 O    2.292183353474   -1.171923923496   -0.062331169032
 C    3.344832401346   -1.904861530948   -0.042703268044
 N    4.573481350987   -1.300918917510   -0.042101754565
 H    4.614891575516   -0.282375798737   -0.067862045777
 C    5.841816554691   -1.927106610583   -0.024553418716
 O    6.883940259790   -1.308824446049   -0.028932446955
 N    5.735957151400   -3.321648271768    0.000040378365
 H    6.623095995232   -3.823529068672    0.014009883162
 C    4.555192201761   -3.992533048986    0.005932152428
 H    4.624226319936   -5.081444559339    0.030314319030
 C    3.345450815417   -3.334199329011   -0.016839384815
 H    2.408790210782   -3.886597211821   -0.011595751232
