26

 N   -5.619004837785    3.261896574482    0.002430331364
 C   -4.438784837785    3.933006574482    0.034450331364
 H   -4.508134837785    5.022176574482    0.036500331364
 C   -5.724314837785    1.867156574482   -0.010269668636
 O   -6.765924837785    1.248706574482   -0.040019668636
 N   -4.456054837785    1.241036574482    0.013810331364
 H   -4.497204837785    0.222156574482    0.012970331364
 C   -3.228024837785    1.845076574482    0.051470331364
 O   -2.175384837785    1.112136574482    0.071100331364
 C   -3.229174837785    3.274606574482    0.061890331364
 H   -2.292954837785    3.827186574482    0.087240331364
 H   -6.506104837785    3.763756574482   -0.014479668636
NA   -0.720424837785    0.477996574482    1.694800331364
NA   -0.865124837785    0.332556574482   -1.634519668636
 O    2.500501918089   -1.278412685438   -0.067423418298
 C    3.553150965961   -2.011350292890   -0.047795517310
 N    4.781845045002   -1.407534958705   -0.054367117802
 H    4.823251642866   -0.389134902606   -0.085275102048
 C    6.050180752974   -2.033755744166   -0.038081549379
 O    7.092334828085   -1.415606847854   -0.049065779843
 N    5.944290064276   -3.428149083808   -0.006271341758
 H    6.831429744711   -3.930043922809    0.007128941157
 C    4.763496356003   -4.098878649688    0.006958607462
 H    4.832522879585   -5.187664071520    0.036456423462
 C    3.553738921179   -3.440543760595   -0.014908589205
 H    2.617055771707   -3.992815474354   -0.003744513868
