26

 N   -5.692859045998    3.299663915201    0.005134818529
 C   -4.512639045998    3.970773915201    0.037154818529
 H   -4.581989045998    5.059943915201    0.039204818529
 C   -5.798169045998    1.904923915201   -0.007565181471
 O   -6.839779045998    1.286473915201   -0.037315181471
 N   -4.529909045998    1.278803915201    0.016514818529
 H   -4.571059045998    0.259923915201    0.015674818529
 C   -3.301879045998    1.882843915201    0.054174818529
 O   -2.249239045998    1.149903915201    0.073804818529
 C   -3.303029045998    3.312373915201    0.064594818529
 H   -2.366809045998    3.864953915201    0.089944818529
 H   -6.579959045998    3.801523915201   -0.011775181471
NA   -0.794279045998    0.515763915201    1.697504818529
NA   -0.938979045998    0.370323915201   -1.631815181471
 O    2.604662669653   -1.331655574985   -0.069992647331
 C    3.657311717525   -2.064593182437   -0.050364746343
 N    4.886018705566   -1.460851243342   -0.060369351140
 H    4.927417329219   -0.442528612293   -0.093740853227
 C    6.154353124622   -2.087090063622   -0.044688107155
 O    7.196513732185   -1.469016440614   -0.058833501675
 N    6.048456206001   -3.481399862132   -0.009424226136
 H    6.935595597072   -3.983302411947    0.003703641177
 C    4.867657624840   -4.152042377617    0.007317659996
 H    4.936686712599   -5.240758553877    0.039263700335
 C    3.657893604130   -3.493705355591   -0.014116686907
 H    2.721206837997   -4.045906385034   -0.000119182333
