26

 N   -5.729785817044    3.318547916743    0.006481566904
 C   -4.549565817044    3.989657916743    0.038501566904
 H   -4.618915817044    5.078827916743    0.040551566904
 C   -5.835095817044    1.923807916743   -0.006218433096
 O   -6.876705817044    1.305357916743   -0.035968433096
 N   -4.566835817044    1.297687916743    0.017861566904
 H   -4.607985817044    0.278807916743    0.017021566904
 C   -3.338805817044    1.901727916743    0.055521566904
 O   -2.286165817044    1.168787916743    0.075151566904
 C   -3.339955817044    3.331257916743    0.065941566904
 H   -2.403735817044    3.883837916743    0.091291566904
 H   -6.616885817044    3.820407916743   -0.010428433096
NA   -0.831205817044    0.534647916743    1.698851566904
NA   -0.975905817044    0.389207916743   -1.630468433096
 O    2.656743378496   -1.358276688576   -0.071282757055
 C    3.709392426367   -2.091214296028   -0.051654856067
 N    4.938103681301   -1.487511218305   -0.063339441906
 H    4.979496930731   -0.469228589291   -0.097916463915
 C    6.206437108554   -2.113759382513   -0.047953924683
 O    7.248599024712   -1.495725306874   -0.063646262234
 N    6.100539204133   -3.508025336790   -0.010999960311
 H    6.987678290855   -4.009931893653    0.001994599625
 C    4.919740336110   -4.178622240756    0.007460518230
 H    4.988772141282   -5.267302430860    0.040604604431
 C    3.709973350836   -3.520283803718   -0.013761999485
 H    2.773286507319   -4.072447812566    0.001622064153
