26

 N   -5.803638737499    3.356316528403    0.009164450264
 C   -4.623418737499    4.027426528403    0.041184450264
 H   -4.692768737499    5.116596528403    0.043234450264
 C   -5.908948737499    1.961576528403   -0.003535549736
 O   -6.950558737499    1.343126528403   -0.033285549736
 N   -4.640688737499    1.335456528403    0.020544450264
 H   -4.681838737499    0.316576528403    0.019704450264
 C   -3.412658737499    1.939496528403    0.058204450264
 O   -2.360018737499    1.206556528403    0.077834450264
 C   -3.413808737499    3.369026528403    0.068624450264
 H   -2.477588737499    3.921606528403    0.093974450264
 H   -6.690738737499    3.858176528403   -0.007745549736
NA   -0.905058737499    0.572416528403    1.701534450264
NA   -1.049758737499    0.426976528403   -1.627785549736
 O    2.760905417818   -1.411518307181   -0.073873589893
 C    3.813554465690   -2.144455914633   -0.054245688905
 N    5.042270173038   -1.540834532400   -0.069219700615
 H    5.083650098156   -0.522634249855   -0.106157087146
 C    6.310600971138   -2.167101978758   -0.054413208045
 O    7.352761855919   -1.549150498090   -0.073134462587
 N    6.204705062725   -3.561276447201   -0.014150060853
 H    7.091843243782   -4.063191294656   -0.001416514014
 C    5.023909625585   -4.231778309827    0.007675416146
 H    5.092949535205   -5.320384041651    0.043165251583
 C    3.814137327295   -3.573436395613   -0.013132319866
 H    2.877453553478   -4.125523291954    0.004966620903
