26

 N   -5.840564903619    3.375201118396    0.010500730012
 C   -4.660344903619    4.046311118396    0.042520730012
 H   -4.729694903619    5.135481118396    0.044570730012
 C   -5.945874903619    1.980461118396   -0.002199269988
 O   -6.987484903619    1.362011118396   -0.031949269988
 N   -4.677614903619    1.354341118396    0.021880730012
 H   -4.718764903619    0.335461118396    0.021040730012
 C   -3.449584903619    1.958381118396    0.059540730012
 O   -2.396944903619    1.225441118396    0.079170730012
 C   -3.450734903619    3.387911118396    0.069960730012
 H   -2.514514903619    3.940491118396    0.095310730012
 H   -6.727664903619    3.877061118396   -0.006409269988
NA   -0.941984903619    0.591301118396    1.702870730012
NA   -1.086684903619    0.445861118396   -1.626449269988
 O    2.812986731587   -1.438138832322   -0.075174168244
 C    3.865635779458   -2.171076439774   -0.055546267255
 N    5.094351782708   -1.567497758894   -0.072130686007
 H    5.135723832153   -0.549339732445   -0.110223609263
 C    6.362680961900   -2.193775121536   -0.057607661051
 O    7.404839606860   -1.575866568375   -0.077811776085
 N    6.256787926128   -3.587902079223   -0.015724445740
 H    7.143925514262   -4.089821200216   -0.003118681101
 C    5.075996096132   -4.258354644491    0.007748422439
 H    5.145041317345   -5.346921994137    0.044386648567
 C    3.866221434093   -3.600010686848   -0.012856240210
 H    2.929540718216   -4.152057598020    0.006571813460
