26

 N   -5.951342318854    3.431855913217    0.014489750243
 C   -4.771122318854    4.102965913217    0.046509750243
 H   -4.840472318854    5.192135913217    0.048559750243
 C   -6.056652318854    2.037115913217    0.001789750243
 O   -7.098262318854    1.418665913217   -0.027960249757
 N   -4.788392318854    1.410995913217    0.025869750243
 H   -4.829542318854    0.392115913217    0.025029750243
 C   -3.560362318854    2.015035913217    0.063529750243
 O   -2.507722318854    1.282095913217    0.083159750243
 C   -3.561512318854    3.444565913217    0.073949750243
 H   -2.625292318854    3.997145913217    0.099299750243
 H   -6.838442318854    3.933715913217   -0.002420249757
NA   -1.052762318854    0.647955913217    1.706859750243
NA   -1.197462318854    0.502515913217   -1.622460249757
 O    2.969231756017   -1.517999382900   -0.079095722310
 C    4.021880803889   -2.250936990352   -0.059467821322
 N    5.250590589785   -1.647493090557   -0.080751745852
 H    5.291934572823   -0.629465674352   -0.122216658981
 C    6.518913797712   -2.273801181269   -0.067055916406
 O    7.561059385517   -1.656027264012   -0.091587295805
 N    6.413036269312   -3.667779261634   -0.020445044930
 H    7.300171565115   -4.169711660713   -0.008212167274
 C    5.232262210506   -4.338077563271    0.007835203892
 H    5.301327983317   -5.426525653012    0.047824600790
 C    4.022481542673   -3.679726360365   -0.012176816752
 H    3.085815595640   -4.231648192798    0.011129822910
