26

 N   -5.988267787007    3.450741157684    0.015813037003
 C   -4.808047787007    4.121851157684    0.047833037003
 H   -4.877397787007    5.211021157684    0.049883037003
 C   -6.093577787007    2.056001157684    0.003113037003
 O   -7.135187787007    1.437551157684   -0.026636962997
 N   -4.825317787007    1.429881157684    0.027193037003
 H   -4.866467787007    0.411001157684    0.026353037003
 C   -3.597287787007    2.033921157684    0.064853037003
 O   -2.544647787007    1.300981157684    0.084483037003
 C   -3.598437787007    3.463451157684    0.075273037003
 H   -2.662217787007    4.016031157684    0.100623037003
 H   -6.875367787007    3.952601157684   -0.001096962997
NA   -1.089687787007    0.666841157684    1.708183037003
NA   -1.234387787007    0.521401157684   -1.621136962997
 O    3.021313767752   -1.544619253565   -0.080409293650
 C    4.073962815624   -2.277556861017   -0.060781392661
 N    5.302668319955   -1.674159924328   -0.083589374196
 H    5.344001574717   -0.656177199990   -0.126147794046
 C    6.570989192474   -2.300478552935   -0.070161798343
 O    7.613128459698   -1.682751294126   -0.096096505464
 N    6.465118972337   -3.694405079123   -0.022017754296
 H    7.352253344923   -4.196342042479   -0.009905801813
 C    5.284352994467   -4.364650024565    0.007821518684
 H    5.353427048162   -5.453057117909    0.048897681680
 C    4.074570664348   -3.706296061845   -0.011998297224
 H    3.137911376816   -4.258174645809    0.012566159669
