26

 N   -6.172892895209    3.545169378093    0.022384349074
 C   -4.992672895209    4.216279378093    0.054404349074
 H   -5.062022895209    5.305449378093    0.056454349074
 C   -6.278202895209    2.150429378093    0.009684349074
 O   -7.319812895209    1.531979378093   -0.020065650926
 N   -5.009942895209    1.524309378093    0.033764349074
 H   -5.051092895209    0.505429378093    0.032924349074
 C   -3.781912895209    2.128349378093    0.071424349074
 O   -2.729272895209    1.395409378093    0.091054349074
 C   -3.783062895209    3.557879378093    0.081844349074
 H   -2.846842895209    4.110459378093    0.107194349074
 H   -7.059992895209    4.047029378093    0.005474349074
NA   -1.274312895209    0.761269378093    1.714754349074
NA   -1.419012895209    0.615829378093   -1.614565650926
 O    3.281726058993   -1.677716608821   -0.087022272073
 C    4.334375106864   -2.410654216273   -0.067394371084
 N    5.563044578249   -1.807505069297   -0.097522766159
 H    5.604315197950   -0.789752952854   -0.145333324892
 C    6.831351509381   -2.433878224663   -0.085383627915
 O    7.873446172988   -1.816395533463   -0.118058782849
 N    6.725531955265   -3.827534775000   -0.029875479261
 H    7.612660665651   -4.329495424523   -0.018344341442
 C    5.544820617720   -4.497500711972    0.007452048001
 H    5.613945480550   -5.585695046906    0.053748048453
 C    4.335032252003   -3.839130692542   -0.011444493795
 H    3.398417719877   -4.390783208492    0.019161465690
