26

 N   -6.209817511725    3.564055373191    0.023689992098
 C   -5.029597511725    4.235165373191    0.055709992098
 H   -5.098947511725    5.324335373191    0.057759992098
 C   -6.315127511725    2.169315373191    0.010989992098
 O   -7.356737511725    1.550865373191   -0.018760007902
 N   -5.046867511725    1.543195373191    0.035069992098
 H   -5.088017511725    0.524315373191    0.034229992098
 C   -3.818837511725    2.147235373191    0.072729992098
 O   -2.766197511725    1.414295373191    0.092359992098
 C   -3.819987511725    3.576765373191    0.083149992098
 H   -2.883767511725    4.129345373191    0.108499992098
 H   -7.096917511725    4.065915373191    0.006779992098
NA   -1.311237511725    0.780155373191    1.716059992098
NA   -1.455937511725    0.634715373191   -1.613260007902
 O    3.333808922365   -1.704335728856   -0.088353487148
 C    4.386457970237   -2.437273336308   -0.068725586160
 N    5.615117583156   -1.834176021893   -0.100260781207
 H    5.656374059691   -0.816471246348   -0.149080624275
 C    6.883421318451   -2.460560397706   -0.088369239055
 O    7.925504708540   -1.843128586264   -0.122339725081
 N    6.777614452951   -3.854160826424   -0.031445911778
 H    7.664741842325   -4.356126362204   -0.020026388541
 C    5.596916617664   -4.524068834406    0.007320648439
 H    5.666053337639   -5.612219277492    0.054619740005
 C    4.387127461692   -3.865695198060   -0.011398450246
 H    3.450523952266   -4.417300791647    0.020368516175
