26

 N   -6.283666382859    3.601827664022    0.026293095626
 C   -5.103446382859    4.272937664022    0.058313095626
 H   -5.172796382859    5.362107664022    0.060363095626
 C   -6.388976382859    2.207087664022    0.013593095626
 O   -7.430586382859    1.588637664022   -0.016156904374
 N   -5.120716382859    1.580967664022    0.037673095626
 H   -5.161866382859    0.562087664022    0.036833095626
 C   -3.892686382859    2.185007664022    0.075333095626
 O   -2.840046382859    1.452067664022    0.094963095626
 C   -3.893836382859    3.614537664022    0.085753095626
 H   -2.957616382859    4.167117664022    0.111103095626
 H   -7.170766382859    4.103687664022    0.009383095626
NA   -1.385086382859    0.817927664022    1.718663095626
NA   -1.529786382859    0.672487664022   -1.610656904374
 O    3.437975011009   -1.757573668291   -0.091024099818
 C    4.490624058880   -2.490511275743   -0.071396198830
 N    5.719261588211   -1.887519569203   -0.105690614782
 H    5.760488352437   -0.869910477547   -0.156489970983
 C    6.987558571483   -2.513926646906   -0.094284685406
 O    8.029617319872   -1.896598262128   -0.130795750220
 N    6.881779357373   -3.907413031602   -0.034585720348
 H    7.768903937680   -4.409388464181   -0.023385108658
 C    5.701110816025   -4.577203383694    0.007003260376
 H    5.770272752103   -5.665264925303    0.056269731426
 C    4.491320456277   -3.918822155802   -0.011367798899
 H    3.554740834385   -4.470332461267    0.022676286099
