26

 N   -6.357514804057    3.639600318035    0.028885630778
 C   -5.177294804057    4.310710318035    0.060905630778
 H   -5.246644804057    5.399880318035    0.062955630778
 C   -6.462824804057    2.244860318035    0.016185630778
 O   -7.504434804057    1.626410318035   -0.013564369222
 N   -5.194564804057    1.618740318035    0.040265630778
 H   -5.235714804057    0.599860318035    0.039425630778
 C   -3.966534804057    2.222780318035    0.077925630778
 O   -2.913894804057    1.489840318035    0.097555630778
 C   -3.967684804057    3.652310318035    0.088345630778
 H   -3.031464804057    4.204890318035    0.113695630778
 H   -7.244614804057    4.141460318035    0.011975630778
NA   -1.458934804057    0.855700318035    1.721255630778
NA   -1.603634804057    0.710260318035   -1.608064369222
 O    3.542141549588   -1.810811244543   -0.093705280864
 C    4.594790597460   -2.543748851996   -0.074077379876
 N    5.823403102661   -1.940865095685   -0.111060782103
 H    5.864598396234   -0.923352862454   -0.163789210051
 C    7.091692888955   -2.567295183003   -0.100128093342
 O    8.133724397218   -1.950072224487   -0.139115051020
 N    6.985944146589   -3.960665365691   -0.037724164122
 H    7.873065711301   -4.462650842351   -0.026736887588
 C    5.805307737275   -4.630335910449    0.006615367737
 H    5.874496746281   -5.718307225878    0.057799102817
 C    4.595516645695   -3.971946650035   -0.011416495816
 H    3.658963194687   -4.523359940842    0.024846722829
