26

 N   -6.394438857451    3.658486767992    0.030178058620
 C   -5.214218857451    4.329596767992    0.062198058620
 H   -5.283568857451    5.418766767992    0.064248058620
 C   -6.499748857451    2.263746767992    0.017478058620
 O   -7.541358857451    1.645296767992   -0.012271941380
 N   -5.231488857451    1.637626767992    0.041558058620
 H   -5.272638857451    0.618746767992    0.040718058620
 C   -4.003458857451    2.241666767992    0.079218058620
 O   -2.950818857451    1.508726767992    0.098848058620
 C   -4.004608857451    3.671196767992    0.089638058620
 H   -3.068388857451    4.223776767992    0.114988058620
 H   -7.281538857451    4.160346767992    0.013268058620
NA   -1.495858857451    0.874586767992    1.722548058620
NA   -1.640558857451    0.729146767992   -1.606771941380
 O    3.594224976082   -1.837429909720   -0.095049711121
 C    4.646874023953   -2.570367517172   -0.075421810132
 N    5.875472990378   -1.967538527184   -0.113724187739
 H    5.916651939682   -0.950075106973   -0.167398825755
 C    7.143759023857   -2.593980220582   -0.103023624344
 O    8.185776006349   -1.976810646612   -0.143225026859
 N    7.038026500152   -3.987291578404   -0.039292890043
 H    7.925146485336   -4.489282125868   -0.028410255113
 C    5.857407145381   -4.656901499025    0.006395805997
 H    5.926610335763   -5.744827262732    0.058519965503
 C    4.647615854104   -3.998508069675   -0.011469672982
 H    3.711076283746   -4.549872275238    0.025882045570
