26

 N   -6.431362811836    3.677373293294    0.031467990052
 C   -5.251142811836    4.348483293294    0.063487990052
 H   -5.320492811836    5.437653293294    0.065537990052
 C   -6.536672811836    2.282633293294    0.018767990052
 O   -7.578282811836    1.664183293294   -0.010982009948
 N   -5.268412811836    1.656513293294    0.042847990052
 H   -5.309562811836    0.637633293294    0.042007990052
 C   -4.040382811836    2.260553293294    0.080507990052
 O   -2.987742811836    1.527613293294    0.100137990052
 C   -4.041532811836    3.690083293294    0.090927990052
 H   -3.105312811836    4.242663293294    0.116277990052
 H   -7.318462811836    4.179233293294    0.014557990052
NA   -1.532782811836    0.893473293294    1.723837990052
NA   -1.677482811836    0.748033293294   -1.605482009948
 O    3.646308501585   -1.864048499551   -0.096396637788
 C    4.698957549457   -2.596986107003   -0.076768736799
 N    5.927542330831   -1.994212367235   -0.116373499405
 H    5.968704555211   -0.976797987681   -0.170982433288
 C    7.195824514898   -2.620665727183   -0.105902139057
 O    8.237826402337   -2.003549946187   -0.147302706939
 N    7.090108827442   -4.013917820212   -0.040861293459
 H    7.977227188150   -4.515913467763   -0.030081982970
 C    5.909507148171   -4.683466679494    0.006159590594
 H    5.978724924066   -5.771346628059    0.059212337077
 C    4.699715762589   -4.025068985792   -0.011541593025
 H    3.763190572352   -4.576383755559    0.026884928904
