26

 N   -6.468286671349    3.696259889233    0.032755471190
 C   -5.288066671349    4.367369889233    0.064775471190
 H   -5.357416671349    5.456539889233    0.066825471190
 C   -6.573596671349    2.301519889233    0.020055471190
 O   -7.615206671349    1.683069889233   -0.009694528810
 N   -5.305336671349    1.675399889233    0.044135471190
 H   -5.346486671349    0.656519889233    0.043295471190
 C   -4.077306671349    2.279439889233    0.081795471190
 O   -3.024666671349    1.546499889233    0.101425471190
 C   -4.078456671349    3.708969889233    0.092215471190
 H   -3.142236671349    4.261549889233    0.117565471190
 H   -7.355386671349    4.198119889233    0.015845471190
NA   -1.569706671349    0.912359889233    1.725125471190
NA   -1.714406671349    0.766919889233   -1.604194528810
 O    3.698392121961   -1.890667018744   -0.097746014748
 C    4.751041169833   -2.623604626196   -0.078118113760
 N    5.979611147161   -2.020886589575   -0.119008977499
 H    6.020756284008   -1.003521458299   -0.174540513401
 C    7.247889389708   -2.647351671549   -0.108763951917
 O    8.289875637452   -2.030290064123   -0.151348688065
 N    7.142191129244   -4.040544090148   -0.042429380289
 H    8.029307822574   -4.542544864780   -0.031752101431
 C    5.961607719263   -4.710031481501    0.005907029363
 H    6.030840466400   -5.797865372083    0.059876744238
 C    4.751816340889   -4.051629432573   -0.011631909579
 H    3.815306008351   -4.602894440651    0.027855972342
