26

 N   -6.505210439969    3.715146551300    0.034040547040
 C   -5.324990439969    4.386256551300    0.066060547040
 H   -5.394340439969    5.475426551300    0.068110547040
 C   -6.610520439969    2.320406551300    0.021340547040
 O   -7.652130439969    1.701956551300   -0.008409452960
 N   -5.342260439969    1.694286551300    0.045420547040
 H   -5.383410439969    0.675406551300    0.044580547040
 C   -4.114230439969    2.298326551300    0.083080547040
 O   -3.061590439969    1.565386551300    0.102710547040
 C   -4.115380439969    3.727856551300    0.093500547040
 H   -3.179160439969    4.280436551300    0.118850547040
 H   -7.392310439969    4.217006551300    0.017130547040
NA   -1.606630439969    0.931246551300    1.726410547040
NA   -1.751330439969    0.785806551300   -1.602909452960
 O    3.750475833229   -1.917285471810   -0.099097796997
 C    4.803124881101   -2.650223079262   -0.079469896009
 N    6.031679461624   -2.047561169043   -0.121630876138
 H    6.072807165663   -1.030245474534   -0.178073535247
 C    7.299953674851   -2.674038023743   -0.111609369776
 O    8.341923761956   -2.057030943832   -0.155363552646
 N    7.194273406315   -4.067170387279   -0.043997156310
 H    8.081388391335   -4.569176313795   -0.033420640039
 C    6.013708833298   -4.736595933423    0.005638422713
 H    6.082956919714   -5.824383542869    0.060513700975
 C    4.803917559905   -4.078189442755   -0.011740284630
 H    3.867422541604   -4.629404386861    0.028795760936
