26

 N   -6.579057719700    3.752920056709    0.036603657532
 C   -5.398837719700    4.424030056709    0.068623657532
 H   -5.468187719700    5.513200056709    0.070673657532
 C   -6.684367719700    2.358180056709    0.023903657532
 O   -7.725977719700    1.739730056709   -0.005846342468
 N   -5.416107719700    1.732060056709    0.047983657532
 H   -5.457257719700    0.713180056709    0.047143657532
 C   -4.188077719700    2.336100056709    0.085643657532
 O   -3.135437719700    1.603160056709    0.105273657532
 C   -4.189227719700    3.765630056709    0.096063657532
 H   -3.253007719700    4.318210056709    0.121413657532
 H   -7.466157719700    4.254780056709    0.019693657532
NA   -1.680477719700    0.969020056709    1.728973657532
NA   -1.825177719700    0.823580056709   -1.600346342468
 O    3.854643513275   -1.970522196668   -0.101808402704
 C    4.907292561147   -2.703459804120   -0.082180501716
 N    6.135814669769   -2.100911303960   -0.126834921223
 H    6.176906538316   -1.083694976071   -0.185066224793
 C    7.404080577360   -2.727411838128   -0.117252211316
 O    8.446016870618   -2.110514774074   -0.163302192359
 N    7.298437889172   -4.120423059554   -0.047131798357
 H    8.185549342264   -4.622439355957   -0.036753092351
 C    6.117912593617   -4.789723894502    0.005054238957
 H    6.187192395357   -5.877418346737    0.061707257821
 C    4.908121809236   -4.131308277401   -0.012009898483
 H    3.971658708856   -4.682422276159    0.030583844022
