26

 N   -6.615981238039    3.771806891938    0.037881776913
 C   -5.435761238039    4.442916891938    0.069901776913
 H   -5.505111238039    5.532086891938    0.071951776913
 C   -6.721291238039    2.377066891938    0.025181776913
 O   -7.762901238039    1.758616891938   -0.004568223087
 N   -5.453031238039    1.750946891938    0.049261776913
 H   -5.494181238039    0.732066891938    0.048421776913
 C   -4.225001238039    2.354986891938    0.086921776913
 O   -3.172361238039    1.622046891938    0.106551776913
 C   -4.226151238039    3.784516891938    0.097341776913
 H   -3.289931238039    4.337096891938    0.122691776913
 H   -7.503081238039    4.273666891938    0.020971776913
NA   -1.717401238039    0.987906891938    1.730251776913
NA   -1.862101238039    0.842466891938   -1.599068223087
 O    3.906727474825   -1.997140476571   -0.103167141422
 C    4.959376522697   -2.730078084023   -0.083539240434
 N    6.187881603858   -2.127586814188   -0.129417546140
 H    6.228955101092   -1.110420381941   -0.188526775820
 C    7.456143242938   -2.754099246549   -0.120050212756
 O    8.498061945978   -2.137257622991   -0.167227064082
 N    7.350520096350   -4.147049432989   -0.048698675266
 H    8.237629729390   -4.649070943474   -0.038417061683
 C    6.170015193922   -4.816287454544    0.004739227466
 H    6.239311339658   -5.903935065969    0.062264825671
 C    4.960224786757   -4.157867160646   -0.012170500860
 H    4.023778251896   -4.708930320387    0.031433240071
