26

 N   -6.689828048723    3.809580708422    0.040431348343
 C   -5.509608048723    4.480690708422    0.072451348343
 H   -5.578958048723    5.569860708422    0.074501348343
 C   -6.795138048723    2.414840708422    0.027731348343
 O   -7.836748048723    1.796390708422   -0.002018651657
 N   -5.526878048723    1.788720708422    0.051811348343
 H   -5.568028048723    0.769840708422    0.050971348343
 C   -4.298848048723    2.392760708422    0.089471348343
 O   -3.246208048723    1.659820708422    0.109101348343
 C   -4.299998048723    3.822290708422    0.099891348343
 H   -3.363778048723    4.374870708422    0.125241348343
 H   -7.576928048723    4.311440708422    0.023521348343
NA   -1.791248048723    1.025680708422    1.732801348343
NA   -1.935948048723    0.880240708422   -1.596518651657
 O    4.010895623918   -2.050376890353   -0.105891286189
 C    5.063544671790   -2.783314497805   -0.086263385201
 N    6.292014227420   -2.180938614147   -0.134545154819
 H    6.333050148774   -1.163872317888   -0.195378420987
 C    7.560267116478   -2.807474939818   -0.125600770553
 O    8.602149353897   -2.190744950263   -0.174990556272
 N    7.454684445513   -4.200302250405   -0.051831567112
 H    8.341790338677   -4.702334238148   -0.041740620884
 C    6.274221726421   -4.869413852796    0.004064729527
 H    6.343551457282   -5.956967340690    0.063303874427
 C    5.064432322977   -4.210983996718   -0.012541761432
 H    4.128020042263   -4.761944844970    0.033045398170
