26

 N   -6.837520853828    3.885128828582    0.045504907453
 C   -5.657300853828    4.556238828582    0.077524907453
 H   -5.726650853828    5.645408828582    0.079574907453
 C   -6.942830853828    2.490388828582    0.032804907453
 O   -7.984440853828    1.871938828582    0.003054907453
 N   -5.674570853828    1.864268828582    0.056884907453
 H   -5.715720853828    0.845388828582    0.056044907453
 C   -4.446540853828    2.468308828582    0.094544907453
 O   -3.393900853828    1.735368828582    0.114174907453
 C   -4.447690853828    3.897838828582    0.104964907453
 H   -3.511470853828    4.450418828582    0.130314907453
 H   -7.724620853828    4.386988828582    0.028594907453
NA   -1.938940853828    1.101228828582    1.737874907453
NA   -2.083640853828    0.955788828582   -1.591445092547
 O    4.219232738367   -2.156849230725   -0.111365159476
 C    5.271881786239   -2.889786838177   -0.091737258488
 N    6.500274986188   -2.287644792326   -0.144655937007
 H    6.541232801359   -1.270779742009   -0.208815199161
 C    7.768509617468   -2.914229190990   -0.136527507103
 O    8.810314303768   -2.297724911400   -0.190186583249
 N    7.663012900276   -4.306808146446   -0.058094042423
 H    8.550110957701   -4.808861238536   -0.048370934106
 C    6.482639562492   -4.975664367140    0.002545079319
 H    6.552039664689   -6.063028258859    0.065090020770
 C    5.272853080441   -4.317214647608   -0.013476353087
 H    4.336513338263   -4.867968843274    0.035937289503
