26

 N   -6.911366894286    3.922903081906    0.048029483785
 C   -5.731146894286    4.594013081906    0.080049483785
 H   -5.800496894286    5.683183081906    0.082099483785
 C   -7.016676894286    2.528163081906    0.035329483785
 O   -8.058286894286    1.909713081906    0.005579483785
 N   -5.748416894286    1.902043081906    0.059409483785
 H   -5.789566894286    0.883163081906    0.058569483785
 C   -4.520386894286    2.506083081906    0.097069483785
 O   -3.467746894286    1.773143081906    0.116699483785
 C   -4.521536894286    3.935613081906    0.107489483785
 H   -3.585316894286    4.488193081906    0.132839483785
 H   -7.798466894286    4.424763081906    0.031119483785
NA   -2.012786894286    1.139003081906    1.740399483785
NA   -2.157486894286    0.993563081906   -1.588920516215
 O    4.323401657686   -2.210085207668   -0.114114299341
 C    5.376050705558   -2.943022815120   -0.094486398353
 N    6.604403378530   -2.340998890254   -0.149642434204
 H    6.645320861404   -1.324234740815   -0.215406467780
 C    7.872628551384   -2.967607416219   -0.141907699163
 O    8.914392425278   -2.351216916888   -0.197626735269
 N    7.767177015008   -4.360061213983   -0.061223701560
 H    8.654270999137   -4.862124909073   -0.051678074589
 C    6.586850574504   -5.028788796762    0.001703855817
 H    6.656287260055   -6.116057432381    0.065843840214
 C    5.377065966275   -4.370328825754   -0.014035263392
 H    4.440764266248   -4.920978941712    0.037224674378
