26

 N   -6.948289833236    3.941790246873    0.049288843372
 C   -5.768069833236    4.612900246873    0.081308843372
 H   -5.837419833236    5.702070246873    0.083358843372
 C   -7.053599833236    2.547050246873    0.036588843372
 O   -8.095209833236    1.928600246873    0.006838843372
 N   -5.785339833236    1.920930246873    0.060668843372
 H   -5.826489833236    0.902050246873    0.059828843372
 C   -4.557309833236    2.524970246873    0.098328843372
 O   -3.504669833236    1.792030246873    0.117958843372
 C   -4.558459833236    3.954500246873    0.108748843372
 H   -3.622239833236    4.507080246873    0.134098843372
 H   -7.835389833236    4.443650246873    0.032378843372
NA   -2.049709833236    1.157890246873    1.741658843372
NA   -2.194409833236    1.012450246873   -1.587661156628
 O    4.375486198624   -2.236703157833   -0.115491797854
 C    5.428135246496   -2.969640765286   -0.095863896865
 N    6.656467129565   -2.367676135765   -0.152119149438
 H    6.697364166109   -1.350962464975   -0.218671595901
 C    7.924687500698   -2.994296737733   -0.144577834432
 O    8.966430513966   -2.377963301201   -0.201308927490
 N    7.819259046067   -4.386687775386   -0.062788152217
 H    8.706350959213   -4.888756779918   -0.053329721045
 C    6.638956545553   -5.055350866788    0.001263710191
 H    6.708411831566   -6.142571802687    0.066187332147
 C    5.429172968674   -4.396885700068   -0.014336704271
 H    4.492890684361   -4.947483639627    0.037830315334
