26

 N   -7.132903809636    4.036226354086    0.055557660230
 C   -5.952683809636    4.707336354086    0.087577660230
 H   -6.022033809636    5.796506354086    0.089627660230
 C   -7.238213809636    2.641486354086    0.042857660230
 O   -8.279823809636    2.023036354086    0.013107660230
 N   -5.969953809636    2.015366354086    0.066937660230
 H   -6.011103809636    0.996486354086    0.066097660230
 C   -4.741923809636    2.619406354086    0.104597660230
 O   -3.689283809636    1.886466354086    0.124227660230
 C   -4.743073809636    4.048936354086    0.115017660230
 H   -3.806853809636    4.601516354086    0.140367660230
 H   -8.020003809636    4.538086354086    0.038647660230
NA   -2.234323809636    1.252326354086    1.747927660230
NA   -2.379023809636    1.106886354086   -1.581392339770
 O    4.635909621667   -2.369792626285   -0.122407271490
 C    5.688558669539   -3.102730233737   -0.102779370502
 N    6.916781960345   -2.501063769239   -0.164344758667
 H    6.957574365994   -1.484602362492   -0.234705772981
 C    8.184977698224   -3.127744771422   -0.157737798192
 O    9.226612422866   -2.511697787040   -0.219357933343
 N    8.079668957546   -4.519820835595   -0.070606784233
 H    8.966750218421   -5.021916419125   -0.061569572096
 C    6.899490455753   -5.188160391116   -0.001123649358
 H    6.969041418376   -6.275142539877    0.067585511405
 C    5.689712889194   -4.529668647327   -0.016053967874
 H    4.753531134671   -5.080004858839    0.040494964007
