26

 N   -7.243671697539    4.092888163665    0.059297669819
 C   -6.063451697539    4.763998163665    0.091317669819
 H   -6.132801697539    5.853168163665    0.093367669819
 C   -7.348981697539    2.698148163665    0.046597669819
 O   -8.390591697539    2.079698163665    0.016847669819
 N   -6.080721697539    2.072028163665    0.070677669819
 H   -6.121871697539    1.053148163665    0.069837669819
 C   -4.852691697539    2.676068163665    0.108337669819
 O   -3.800051697539    1.943128163665    0.127967669819
 C   -4.853841697539    4.105598163665    0.118757669819
 H   -3.917621697539    4.658178163665    0.144107669819
 H   -8.130771697539    4.594748163665    0.042387669819
NA   -2.345091697539    1.308988163665    1.751667669819
NA   -2.489791697539    1.163548163665   -1.577652330181
 O    4.792164173429   -2.449646162105   -0.126577836199
 C    5.844813221301   -3.182583769557   -0.106949935210
 N    7.072968147403   -2.581097026188   -0.171559985842
 H    7.113696180703   -1.564786548144   -0.244104617766
 C    8.341148686901   -3.207814202554   -0.165488735094
 O    9.382715703443   -2.591939529750   -0.229912061993
 N    8.235914725268   -4.599700855263   -0.075295208550
 H    9.122989394164   -5.101812373717   -0.066499502832
 C    7.055813563004   -5.267845941161   -0.002698000522
 H    7.125423736059   -6.354684927600    0.068181603477
 C    5.846040211283   -4.609337854175   -0.017244080408
 H    4.909921133913   -5.159516766636    0.041817261991
