26

 N   -7.317516780754    4.130662730707    0.061782623779
 C   -6.137296780754    4.801772730707    0.093802623779
 H   -6.206646780754    5.890942730707    0.095852623779
 C   -7.422826780754    2.735922730707    0.049082623779
 O   -8.464436780754    2.117472730707    0.019332623779
 N   -6.154566780754    2.109802730707    0.073162623779
 H   -6.195716780754    1.090922730707    0.072322623779
 C   -4.926536780754    2.713842730707    0.110822623779
 O   -3.873896780754    1.980902730707    0.130452623779
 C   -4.927686780754    4.143372730707    0.121242623779
 H   -3.991466780754    4.695952730707    0.146592623779
 H   -8.204616780754    4.632522730707    0.044872623779
NA   -2.418936780754    1.346762730707    1.754152623779
NA   -2.563636780754    1.201322730707   -1.575167376221
 O    4.896334049991   -2.502881825329   -0.129366598437
 C    5.948983097863   -3.235819432781   -0.109738697448
 N    7.177091321241   -2.634452628675   -0.176322796085
 H    7.217775910957   -1.618242457776   -0.250283169413
 C    8.445261587974   -3.261193860183   -0.170598872419
 O    9.486782515533   -2.645434052217   -0.236839675170
 N    8.340078502511   -4.652954270154   -0.078419738830
 H    9.227148708685   -5.155076391201   -0.069780614274
 C    7.160029916962   -5.320969775823   -0.003803497108
 H    7.229680175963   -6.407713505811    0.068483318104
 C    5.950259597536   -4.662450662011   -0.018100440181
 H    5.014183120369   -5.212524769176    0.042589842568
