26

 N   -7.428284176614    4.187324587655    0.065498013784
 C   -6.248064176614    4.858434587655    0.097518013784
 H   -6.317414176614    5.947604587655    0.099568013784
 C   -7.533594176614    2.792584587655    0.052798013784
 O   -8.575204176614    2.174134587655    0.023048013784
 N   -6.265334176614    2.166464587655    0.076878013784
 H   -6.306484176614    1.147584587655    0.076038013784
 C   -5.037304176614    2.770504587655    0.114538013784
 O   -3.984664176614    2.037564587655    0.134168013784
 C   -5.038454176614    4.200034587655    0.124958013784
 H   -4.102234176614    4.752614587655    0.150308013784
 H   -8.315384176614    4.689184587655    0.048588013784
NA   -2.529704176614    1.403424587655    1.757868013784
NA   -2.674404176614    1.257984587655   -1.571451986216
 O    5.052589093797   -2.582735313780   -0.133561782729
 C    6.105238141668   -3.315672921232   -0.113933881740
 N    7.333274845793   -2.714485987471   -0.183399035591
 H    7.373893620126   -1.698425672663   -0.259425583220
 C    8.601429528388   -3.341263175704   -0.178182013198
 O    9.642880098006   -2.725675450282   -0.247075343456
 N    8.496324073830   -4.732834486508   -0.083104974607
 H    9.383387500249   -5.234972464414   -0.074694370940
 C    7.316355658169   -5.400655940184   -0.005542047559
 H    7.386066816886   -6.487257206947    0.068798508806
 C    6.106590187380   -4.742120125034   -0.019475369166
 H    5.170578655911   -5.292037291635    0.043592274960
