26

 N   -7.465206587123    4.206211868733    0.066733368657
 C   -6.284986587123    4.877321868733    0.098753368657
 H   -6.354336587123    5.966491868733    0.100803368657
 C   -7.570516587123    2.811471868733    0.054033368657
 O   -8.612126587123    2.193021868733    0.024283368657
 N   -6.302256587123    2.185351868733    0.078113368657
 H   -6.343406587123    1.166471868733    0.077273368657
 C   -5.074226587123    2.789391868733    0.115773368657
 O   -4.021586587123    2.056451868733    0.135403368657
 C   -5.075376587123    4.218921868733    0.126193368657
 H   -4.139156587123    4.771501868733    0.151543368657
 H   -8.352306587123    4.708071868733    0.049823368657
NA   -2.566626587123    1.422311868733    1.759103368657
NA   -2.711326587123    1.276871868733   -1.570216631343
 O    5.104674163176   -2.609353147835   -0.134963285954
 C    6.157323211048   -3.342290755287   -0.115335384966
 N    7.385335725957   -2.741163727024   -0.185740233656
 H    7.425932414687   -1.725153178495   -0.262440678520
 C    8.653485173733   -3.367952861030   -0.180688541181
 O    9.694912001101   -2.752422402967   -0.250447024780
 N    8.548405907090   -4.759461248758   -0.084666317161
 H    9.435467053758   -5.261604496862   -0.076330247640
 C    7.368464522127   -5.427218142903   -0.006142295537
 H    7.438196159205   -6.513772060202    0.068868107029
 C    6.158700741420   -4.768676724264   -0.019957013310
 H    5.222711104637   -5.318541680483    0.043886033737
