26

 N   -7.575973674553    4.262873678341    0.070430449769
 C   -6.395753674553    4.933983678341    0.102450449769
 H   -6.465103674553    6.023153678341    0.104500449769
 C   -7.681283674553    2.868133678341    0.057730449769
 O   -8.722893674553    2.249683678341    0.027980449769
 N   -6.413023674553    2.242013678341    0.081810449769
 H   -6.454173674553    1.223133678341    0.080970449769
 C   -5.184993674553    2.846053678341    0.119470449769
 O   -4.132353674553    2.113113678341    0.139100449769
 C   -5.186143674553    4.275583678341    0.129890449769
 H   -4.249923674553    4.828163678341    0.155240449769
 H   -8.463073674553    4.764733678341    0.053520449769
NA   -2.677393674553    1.478973678341    1.762800449769
NA   -2.822093674553    1.333533678341   -1.566519550231
 O    5.260929515412   -2.689206683625   -0.139176779139
 C    6.313578563284   -3.422144291077   -0.119548878151
 N    7.541517595032   -2.821196695457   -0.192713112759
 H    7.582047669512   -1.805334811604   -0.271392399094
 C    8.809651239073   -3.448021527881   -0.188146898876
 O    9.851006089713   -2.832662476806   -0.260445867798
 N    8.704651339791   -4.839341600670   -0.089349180762
 H    9.591705597386   -5.341500604039   -0.081231975669
 C    7.524791838688   -5.506905314696   -0.008002951757
 H    7.594585359219   -6.593317679961    0.068974408496
 C    6.315033329820   -4.848346997554   -0.021469382057
 H    5.379110010421   -5.398055732658    0.044650597189
