26

 N   -7.612895993474    4.281760932663    0.071659893678
 C   -6.432675993474    4.952870932663    0.103679893678
 H   -6.502025993474    6.042040932663    0.105729893678
 C   -7.718205993474    2.887020932663    0.058959893678
 O   -8.759815993474    2.268570932663    0.029209893678
 N   -6.449945993474    2.260900932663    0.083039893678
 H   -6.491095993474    1.242020932663    0.082199893678
 C   -5.221915993474    2.864940932663    0.120699893678
 O   -4.169275993474    2.132000932663    0.140329893678
 C   -5.223065993474    4.294470932663    0.131119893678
 H   -4.286845993474    4.847050932663    0.156469893678
 H   -8.499995993474    4.783620932663    0.054749893678
NA   -2.714315993474    1.497860932663    1.764029893678
NA   -2.859015993474    1.352420932663   -1.565290106322
 O    5.313014676379   -2.715824544436   -0.140584193329
 C    6.365663724251   -3.448762151888   -0.120956292341
 N    7.593577985826   -2.847874244220   -0.195020941380
 H    7.634085754900   -1.832061687294   -0.274345930740
 C    8.861706333499   -3.474710925604   -0.190613141364
 O    9.903036968155   -2.859408853588   -0.263741091546
 N    8.756733129332   -4.865968405196   -0.090909757334
 H    9.643785076096   -5.368132639914   -0.082863968903
 C    7.576901157966   -5.533467919162   -0.008642620528
 H    7.646715436588   -6.619833283506    0.068976568816
 C    6.367144469122   -4.874903944487   -0.021995397741
 H    5.431243443434   -5.424560764402    0.044867561633
