17

 N   -2.024558240516   -1.700068845186   -0.227413890054
 C   -0.814370173672   -1.044862641510   -0.223452266086
 N    0.419042240631   -1.643540335972   -0.211413981181
 C    1.389465440687   -0.753364194361   -0.223286438154
 N    1.186388603274    0.608273939153   -0.230121598496
 H    1.990215728525    1.228234478908   -0.312109620918
 N    2.714920194924   -1.172038916041   -0.301633741389
 H    3.369456400256   -0.640235691641    0.266007035341
 H    2.793725282315   -2.172739059976   -0.140050403400
 C   -0.072885139043    1.294307642684   -0.217167811819
 O   -0.100465508148    2.522480727461   -0.221255940247
 C   -1.145670265019    0.320614253410   -0.210966613879
 N   -2.516743566788    0.506945298723   -0.211041798595
 C   -3.010267061299   -0.731657715322   -0.221371898260
 H   -4.067764974567   -0.985804337154   -0.224318542686
 H   -2.149655237047   -2.706651930418   -0.236073441085
 K    1.195844325033    0.604861237763    0.869832465452
