17

 N   -2.024910780741   -1.699941608520   -0.268423774130
 C   -0.814722713897   -1.044735404844   -0.264462150162
 N    0.418689700406   -1.643413099306   -0.252423865257
 C    1.389112900462   -0.753236957695   -0.264296322230
 N    1.186036063049    0.608401175819   -0.271131482572
 H    1.989863188300    1.228361715574   -0.353119504994
 N    2.714567654699   -1.171911679375   -0.342643625465
 H    3.369103860031   -0.640108454975    0.224997151265
 H    2.793372742090   -2.172611823310   -0.181060287476
 C   -0.073237679268    1.294434879350   -0.258177695895
 O   -0.100818048373    2.522607964127   -0.262265824323
 C   -1.146022805244    0.320741490076   -0.251976497955
 N   -2.517096107013    0.507072535389   -0.252051682671
 C   -3.010619601524   -0.731530478656   -0.262381782336
 H   -4.068117514792   -0.985677100488   -0.265328426762
 H   -2.150007777272   -2.706524693752   -0.277083325161
 K    1.197211006946    0.604367983268    1.028814229366
