17

 N   -2.025263320966   -1.699814371853   -0.309433658207
 C   -0.815075254122   -1.044608168177   -0.305472034239
 N    0.418337160181   -1.643285862639   -0.293433749334
 C    1.388760360237   -0.753109721028   -0.305306206307
 N    1.185683522824    0.608528412486   -0.312141366649
 H    1.989510648075    1.228488952241   -0.394129389071
 N    2.714215114474   -1.171784442708   -0.383653509542
 H    3.368751319806   -0.639981218308    0.183987267188
 H    2.793020201865   -2.172484586643   -0.222070171553
 C   -0.073590219493    1.294562116017   -0.299187579972
 O   -0.101170588598    2.522735200794   -0.303275708400
 C   -1.146375345469    0.320868726743   -0.292986382032
 N   -2.517448647238    0.507199772056   -0.293061566748
 C   -3.010972141749   -0.731403241989   -0.303391666413
 H   -4.068470055017   -0.985549863821   -0.306338310839
 H   -2.150360317497   -2.706397457085   -0.318093209238
 K    1.198577688859    0.603874728772    1.187795993280
