17

 N   -2.026144671528   -1.699496280187   -0.411958368398
 C   -0.815956604684   -1.044290076511   -0.407996744430
 N    0.417455809619   -1.642967770973   -0.395958459525
 C    1.387879009675   -0.752791629362   -0.407830916498
 N    1.184802172262    0.608846504152   -0.414666076840
 H    1.988629297513    1.228807043907   -0.496654099262
 N    2.713333763912   -1.171466351042   -0.486178219733
 H    3.367869969244   -0.639663126642    0.081462556997
 H    2.792138851303   -2.172166494977   -0.324594881744
 C   -0.074471570055    1.294880207683   -0.401712290163
 O   -0.102051939160    2.523053292460   -0.405800418591
 C   -1.147256696031    0.321186818409   -0.395511092223
 N   -2.518329997800    0.507517863722   -0.395586276939
 C   -3.011853492311   -0.731085150323   -0.405916376604
 H   -4.069351405579   -0.985231772155   -0.408863021030
 H   -2.151241668059   -2.706079365419   -0.420617919429
 K    1.201994393641    0.602641592534    1.585250403065
