17

 N   -2.026497211753   -1.699369043521   -0.452968252475
 C   -0.816309144909   -1.044162839845   -0.449006628507
 N    0.417103269394   -1.642840534307   -0.436968343602
 C    1.387526469450   -0.752664392696   -0.448840800575
 N    1.184449632037    0.608973740818   -0.455675960917
 H    1.988276757288    1.228934280573   -0.537663983339
 N    2.712981223687   -1.171339114376   -0.527188103810
 H    3.367517429019   -0.639535889976    0.040452672920
 H    2.791786311078   -2.172039258311   -0.365604765821
 C   -0.074824110280    1.295007444349   -0.442722174240
 O   -0.102404479385    2.523180529126   -0.446810302668
 C   -1.147609236256    0.321314055075   -0.436520976300
 N   -2.518682538025    0.507645100388   -0.436596161016
 C   -3.012206032536   -0.730957913657   -0.446926260681
 H   -4.069703945804   -0.985104535489   -0.449872905107
 H   -2.151594208284   -2.705952128753   -0.461627803506
 K    1.203361075554    0.602148338039    1.744232166979
