17

 N   -2.027202292203   -1.699114570188   -0.534988020628
 C   -0.817014225359   -1.043908366512   -0.531026396660
 N    0.416398188944   -1.642586060974   -0.518988111755
 C    1.386821389000   -0.752409919363   -0.530860568728
 N    1.183744551587    0.609228214151   -0.537695729070
 H    1.987571676838    1.229188753906   -0.619683751492
 N    2.712276143237   -1.171084641043   -0.609207871963
 H    3.366812348569   -0.639281416643   -0.041567095233
 H    2.791081230628   -2.171784784978   -0.447624533974
 C   -0.075529190730    1.295261917682   -0.524741942393
 O   -0.103109559835    2.523435002459   -0.528830070821
 C   -1.148314316706    0.321568528408   -0.518540744453
 N   -2.519387618475    0.507899573721   -0.518615929169
 C   -3.012911112986   -0.730703440324   -0.528946028834
 H   -4.070409026254   -0.984850062156   -0.531892673260
 H   -2.152299288734   -2.705697655420   -0.543647571659
 K    1.206094439380    0.601161829048    2.062195694807
