17

 N   -2.027907372653   -1.698860096855   -0.617007788780
 C   -0.817719305809   -1.043653893179   -0.613046164812
 N    0.415693108494   -1.642331587641   -0.601007879907
 C    1.386116308550   -0.752155446030   -0.612880336880
 N    1.183039471137    0.609482687484   -0.619715497222
 H    1.986866596388    1.229443227239   -0.701703519644
 N    2.711571062787   -1.170830167710   -0.691227640115
 H    3.366107268119   -0.639026943310   -0.123586863385
 H    2.790376150178   -2.171530311645   -0.529644302126
 C   -0.076234271180    1.295516391015   -0.606761710545
 O   -0.103814640285    2.523689475792   -0.610849838973
 C   -1.149019397156    0.321823001741   -0.600560512605
 N   -2.520092698925    0.508154047054   -0.600635697321
 C   -3.013616193436   -0.730448966991   -0.610965796986
 H   -4.071114106704   -0.984595588823   -0.613912441412
 H   -2.153004369184   -2.705443182087   -0.625667339811
 K    1.208827803206    0.600175320058    2.380159222635
