17

 N   -2.028083642766   -1.698796478522   -0.637512730819
 C   -0.817895575922   -1.043590274846   -0.633551106851
 N    0.415516838381   -1.642267969308   -0.621512821946
 C    1.385940038437   -0.752091827697   -0.633385278919
 N    1.182863201024    0.609546305817   -0.640220439261
 H    1.986690326275    1.229506845572   -0.722208461683
 N    2.711394792674   -1.170766549377   -0.711732582154
 H    3.365930998006   -0.638963324977   -0.144091805424
 H    2.790199880065   -2.171466693312   -0.550149244165
 C   -0.076410541293    1.295580009348   -0.627266652584
 O   -0.103990910398    2.523753094125   -0.631354781012
 C   -1.149195667269    0.321886620074   -0.621065454644
 N   -2.520268969038    0.508217665387   -0.621140639360
 C   -3.013792463549   -0.730385348658   -0.631470739025
 H   -4.071290376817   -0.984531970490   -0.634417383451
 H   -2.153180639297   -2.705379563754   -0.646172281850
 K    1.209511144162    0.599928692810    2.459650104592
