17

 N   -2.028612453103   -1.698605623522   -0.699027556933
 C   -0.818424386259   -1.043399419846   -0.695065932965
 N    0.414988028044   -1.642077114308   -0.683027648060
 C    1.385411228100   -0.751900972697   -0.694900105033
 N    1.182334390687    0.609737160817   -0.701735265375
 H    1.986161515938    1.229697700572   -0.783723287797
 N    2.710865982337   -1.170575694377   -0.773247408268
 H    3.365402187669   -0.638772469977   -0.205606631538
 H    2.789671069728   -2.171275838312   -0.611664070279
 C   -0.076939351630    1.295770864348   -0.688781478698
 O   -0.104519720735    2.523943949125   -0.692869607126
 C   -1.149724477606    0.322077475074   -0.682580280758
 N   -2.520797779375    0.508408520387   -0.682655465474
 C   -3.014321273886   -0.730194493658   -0.692985565139
 H   -4.071819187154   -0.984341115490   -0.695932209565
 H   -2.153709449634   -2.705188708754   -0.707687107964
 K    1.211561167032    0.599188811067    2.698122750463
