17

 N   -2.028964993328   -1.698478386855   -0.740037441010
 C   -0.818776926484   -1.043272183179   -0.736075817042
 N    0.414635487819   -1.641949877641   -0.724037532137
 C    1.385058687875   -0.751773736030   -0.735909989110
 N    1.181981850462    0.609864397484   -0.742745149452
 H    1.985808975713    1.229824937239   -0.824733171874
 N    2.710513442112   -1.170448457710   -0.814257292345
 H    3.365049647444   -0.638645233310   -0.246616515615
 H    2.789318529503   -2.171148601645   -0.652673954356
 C   -0.077291891855    1.295898101015   -0.729791362775
 O   -0.104872260960    2.524071185792   -0.733879491203
 C   -1.150077017831    0.322204711741   -0.723590164835
 N   -2.521150319600    0.508535757054   -0.723665349551
 C   -3.014673814111   -0.730067256991   -0.733995449216
 H   -4.072171727379   -0.984213878823   -0.736942093642
 H   -2.154061989859   -2.705061472087   -0.748696992041
 K    1.212927848945    0.598695556572    2.857104514377
