17

 N   -2.029846343891   -1.698160295189   -0.842562151201
 C   -0.819658277047   -1.042954091513   -0.838600527233
 N    0.413754137256   -1.641631785975   -0.826562242328
 C    1.384177337312   -0.751455644364   -0.838434699301
 N    1.181100499899    0.610182489150   -0.845269859643
 H    1.984927625150    1.230143028905   -0.927257882065
 N    2.709632091549   -1.170130366044   -0.916782002536
 H    3.364168296881   -0.638327141644   -0.349141225806
 H    2.788437178940   -2.170830509979   -0.755198664547
 C   -0.078173242418    1.296216192681   -0.832316072966
 O   -0.105753611523    2.524389277458   -0.836404201394
 C   -1.150958368394    0.322522803407   -0.826114875026
 N   -2.522031670163    0.508853848720   -0.826190059742
 C   -3.015555164674   -0.729749165325   -0.836520159407
 H   -4.073053077942   -0.983895787157   -0.839466803833
 H   -2.154943340422   -2.704743380421   -0.851221702232
 K    1.216344553727    0.597462420334    3.254558924162
