17

 N   -2.030198884116   -1.698033058523   -0.883572035278
 C   -0.820010817272   -1.042826854847   -0.879610411310
 N    0.413401597031   -1.641504549309   -0.867572126405
 C    1.383824797087   -0.751328407698   -0.879444583378
 N    1.180747959674    0.610309725816   -0.886279743720
 H    1.984575084925    1.230270265571   -0.968267766142
 N    2.709279551324   -1.170003129378   -0.957791886613
 H    3.363815756656   -0.638199904978   -0.390151109883
 H    2.788084638715   -2.170703273313   -0.796208548624
 C   -0.078525782643    1.296343429347   -0.873325957043
 O   -0.106106151748    2.524516514124   -0.877414085471
 C   -1.151310908619    0.322650040073   -0.867124759103
 N   -2.522384210388    0.508981085386   -0.867199943819
 C   -3.015907704899   -0.729621928659   -0.877530043484
 H   -4.073405618167   -0.983768550491   -0.880476687910
 H   -2.155295880647   -2.704616143755   -0.892231586309
 K    1.217711235640    0.596969165838    3.413540688076
