17

 N   -2.030375154228   -1.697969440189   -0.904076977316
 C   -0.820187087384   -1.042763236513   -0.900115353348
 N    0.413225326919   -1.641440930975   -0.888077068443
 C    1.383648526975   -0.751264789364   -0.899949525416
 N    1.180571689562    0.610373344150   -0.906784685758
 H    1.984398814813    1.230333883905   -0.988772708180
 N    2.709103281212   -1.169939511044   -0.978296828651
 H    3.363639486544   -0.638136286644   -0.410656051921
 H    2.787908368603   -2.170639654979   -0.816713490662
 C   -0.078702052755    1.296407047681   -0.893830899081
 O   -0.106282421860    2.524580132458   -0.897919027509
 C   -1.151487178731    0.322713658407   -0.887629701141
 N   -2.522560480500    0.509044703720   -0.887704885857
 C   -3.016083975011   -0.729558310325   -0.898034985522
 H   -4.073581888279   -0.983704932157   -0.900981629948
 H   -2.155472150759   -2.704552525421   -0.912736528347
 K    1.218394576597    0.596722538591    3.493031570033
