17

 N   -2.030727694453   -1.697842203523   -0.945086861392
 C   -0.820539627609   -1.042635999847   -0.941125237424
 N    0.412872786694   -1.641313694309   -0.929086952519
 C    1.383295986750   -0.751137552698   -0.940959409492
 N    1.180219149337    0.610500580816   -0.947794569834
 H    1.984046274588    1.230461120571   -1.029782592256
 N    2.708750740987   -1.169812274378   -1.019306712727
 H    3.363286946319   -0.638009049978   -0.451665935997
 H    2.787555828378   -2.170512418313   -0.857723374738
 C   -0.079054592980    1.296534284347   -0.934840783157
 O   -0.106634962085    2.524707369124   -0.938928911585
 C   -1.151839718956    0.322840895073   -0.928639585217
 N   -2.522913020725    0.509171940386   -0.928714769933
 C   -3.016436515236   -0.729431073659   -0.939044869598
 H   -4.073934428504   -0.983577695491   -0.941991514024
 H   -2.155824690984   -2.704425288755   -0.953746412423
 K    1.219761258510    0.596229284095    3.652013333947
