17

 N   -2.030903964566   -1.697778585190   -0.965591803431
 C   -0.820715897722   -1.042572381514   -0.961630179463
 N    0.412696516581   -1.641250075976   -0.949591894558
 C    1.383119716637   -0.751073934365   -0.961464351531
 N    1.180042879224    0.610564199149   -0.968299511873
 H    1.983870004475    1.230524738904   -1.050287534295
 N    2.708574470874   -1.169748656045   -1.039811654766
 H    3.363110676206   -0.637945431645   -0.472170878036
 H    2.787379558265   -2.170448799980   -0.878228316777
 C   -0.079230863093    1.296597902680   -0.955345725196
 O   -0.106811232198    2.524770987457   -0.959433853624
 C   -1.152015989069    0.322904513406   -0.949144527256
 N   -2.523089290838    0.509235558719   -0.949219711972
 C   -3.016612785349   -0.729367455326   -0.959549811637
 H   -4.074110698617   -0.983514077158   -0.962496456063
 H   -2.156000961097   -2.704361670422   -0.974251354462
 K    1.220444599466    0.595982656848    3.731504215904
