17

 N   -2.031256504791   -1.697651348523   -1.006601687507
 C   -0.821068437947   -1.042445144847   -1.002640063539
 N    0.412343976356   -1.641122839309   -0.990601778634
 C    1.382767176412   -0.750946697698   -1.002474235607
 N    1.179690338999    0.610691435816   -1.009309395949
 H    1.983517464250    1.230651975571   -1.091297418371
 N    2.708221930649   -1.169621419378   -1.080821538842
 H    3.362758135981   -0.637818194978   -0.513180762112
 H    2.787027018040   -2.170321563313   -0.919238200853
 C   -0.079583403318    1.296725139347   -0.996355609272
 O   -0.107163772423    2.524898224124   -1.000443737700
 C   -1.152368529294    0.323031750073   -0.990154411332
 N   -2.523441831063    0.509362795386   -0.990229596048
 C   -3.016965325574   -0.729240218659   -1.000559695713
 H   -4.074463238842   -0.983386840491   -1.003506340139
 H   -2.156353501322   -2.704234433755   -1.015261238538
 K    1.221811281379    0.595489402353    3.890485979818
