17

 N   -2.031961585241   -1.697396875190   -1.088621455660
 C   -0.821773518397   -1.042190671514   -1.084659831692
 N    0.411638895906   -1.640868365976   -1.072621546787
 C    1.382062095962   -0.750692224365   -1.084494003760
 N    1.178985258549    0.610945909149   -1.091329164102
 H    1.982812383800    1.230906448904   -1.173317186524
 N    2.707516850199   -1.169366946045   -1.162841306995
 H    3.362053055531   -0.637563721645   -0.595200530265
 H    2.786321937590   -2.170067089980   -1.001257969006
 C   -0.080288483768    1.296979612680   -1.078375377425
 O   -0.107868852873    2.525152697457   -1.082463505853
 C   -1.153073609744    0.323286223406   -1.072174179485
 N   -2.524146911513    0.509617268719   -1.072249364201
 C   -3.017670406024   -0.728985745326   -1.082579463866
 H   -4.075168319292   -0.983132367158   -1.085526108292
 H   -2.157058581772   -2.703979960422   -1.097281006691
 K    1.224544645205    0.594502893362    4.208449507646
