17

 N   -2.032666665691   -1.697142401857   -1.170641223813
 C   -0.822478598847   -1.041936198181   -1.166679599845
 N    0.410933815456   -1.640613892643   -1.154641314940
 C    1.381357015512   -0.750437751032   -1.166513771913
 N    1.178280178099    0.611200382482   -1.173348932255
 H    1.982107303350    1.231160922237   -1.255336954677
 N    2.706811769749   -1.169112472712   -1.244861075148
 H    3.361347975081   -0.637309248312   -0.677220298418
 H    2.785616857140   -2.169812616647   -1.083277737159
 C   -0.080993564218    1.297234086013   -1.160395145578
 O   -0.108573933323    2.525407170790   -1.164483274006
 C   -1.153778690194    0.323540696739   -1.154193947638
 N   -2.524851991963    0.509871742052   -1.154269132354
 C   -3.018375486474   -0.728731271993   -1.164599232019
 H   -4.075873399742   -0.982877893825   -1.167545876445
 H   -2.157763662222   -2.703725487089   -1.179300774844
 K    1.227278009031    0.593516384371    4.526413035474
