17

 N   -2.032842935803   -1.697078783524   -1.191146165851
 C   -0.822654868959   -1.041872579848   -1.187184541883
 N    0.410757545344   -1.640550274310   -1.175146256978
 C    1.381180745400   -0.750374132699   -1.187018713951
 N    1.178103907987    0.611264000815   -1.193853874293
 H    1.981931033238    1.231224540570   -1.275841896715
 N    2.706635499637   -1.169048854379   -1.265366017186
 H    3.361171704969   -0.637245629979   -0.697725240456
 H    2.785440587028   -2.169748998314   -1.103782679197
 C   -0.081169834330    1.297297704346   -1.180900087616
 O   -0.108750203435    2.525470789123   -1.184988216044
 C   -1.153954960306    0.323604315072   -1.174698889676
 N   -2.525028262075    0.509935360385   -1.174774074392
 C   -3.018551756586   -0.728667653660   -1.185104174057
 H   -4.076049669854   -0.982814275492   -1.188050818483
 H   -2.157939932334   -2.703661868756   -1.199805716882
 K    1.227961349987    0.593269757124    4.605903917432
