17

 N   -2.033195476028   -1.696951546858   -1.232156049928
 C   -0.823007409184   -1.041745343182   -1.228194425960
 N    0.410405005119   -1.640423037644   -1.216156141055
 C    1.380828205175   -0.750246896033   -1.228028598028
 N    1.177751367762    0.611391237481   -1.234863758370
 H    1.981578493013    1.231351777236   -1.316851780792
 N    2.706282959412   -1.168921617713   -1.306375901263
 H    3.360819164744   -0.637118393313   -0.738735124533
 H    2.785088046803   -2.169621761648   -1.144792563274
 C   -0.081522374555    1.297424941012   -1.221909971693
 O   -0.109102743660    2.525598025789   -1.225998100121
 C   -1.154307500531    0.323731551738   -1.215708773753
 N   -2.525380802300    0.510062597051   -1.215783958469
 C   -3.018904296811   -0.728540416994   -1.226114058134
 H   -4.076402210079   -0.982687038826   -1.229060702560
 H   -2.158292472559   -2.703534632090   -1.240815600959
 K    1.229328031900    0.592776502628    4.764885681346
