17

 N   -2.033548016253   -1.696824310191   -1.273165934004
 C   -0.823359949409   -1.041618106515   -1.269204310036
 N    0.410052464894   -1.640295800977   -1.257166025131
 C    1.380475664950   -0.750119659366   -1.269038482104
 N    1.177398827537    0.611518474148   -1.275873642446
 H    1.981225952788    1.231479013903   -1.357861664868
 N    2.705930419187   -1.168794381046   -1.347385785339
 H    3.360466624519   -0.636991156646   -0.779745008609
 H    2.784735506578   -2.169494524981   -1.185802447350
 C   -0.081874914780    1.297552177679   -1.262919855769
 O   -0.109455283885    2.525725262456   -1.267007984197
 C   -1.154660040756    0.323858788405   -1.256718657829
 N   -2.525733342525    0.510189833718   -1.256793842545
 C   -3.019256837036   -0.728413180327   -1.267123942210
 H   -4.076754750304   -0.982559802159   -1.270070586636
 H   -2.158645012784   -2.703407395423   -1.281825485035
 K    1.230694713813    0.592283248133    4.923867445260
