17

 N   -2.033724286366   -1.696760691858   -1.293670876042
 C   -0.823536219522   -1.041554488182   -1.289709252074
 N    0.409876194781   -1.640232182644   -1.277670967169
 C    1.380299394837   -0.750056041033   -1.289543424142
 N    1.177222557424    0.611582092481   -1.296378584484
 H    1.981049682675    1.231542632236   -1.378366606906
 N    2.705754149074   -1.168730762713   -1.367890727377
 H    3.360290354406   -0.636927538313   -0.800249950647
 H    2.784559236465   -2.169430906648   -1.206307389388
 C   -0.082051184893    1.297615796012   -1.283424797807
 O   -0.109631553998    2.525788880789   -1.287512926235
 C   -1.154836310869    0.323922406738   -1.277223599867
 N   -2.525909612638    0.510253452051   -1.277298784583
 C   -3.019433107149   -0.728349561994   -1.287628884248
 H   -4.076931020417   -0.982496183826   -1.290575528674
 H   -2.158821282897   -2.703343777090   -1.302330427073
 K    1.231378054770    0.592036620886    5.003358327217
