17

 N   -2.034076826591   -1.696633455191   -1.334680760119
 C   -0.823888759747   -1.041427251515   -1.330719136151
 N    0.409523654556   -1.640104945977   -1.318680851246
 C    1.379946854612   -0.749928804366   -1.330553308219
 N    1.176870017199    0.611709329148   -1.337388468561
 H    1.980697142450    1.231669868903   -1.419376490983
 N    2.705401608849   -1.168603526046   -1.408900611454
 H    3.359937814181   -0.636800301646   -0.841259834724
 H    2.784206696240   -2.169303669981   -1.247317273465
 C   -0.082403725118    1.297743032679   -1.324434681884
 O   -0.109984094223    2.525916117456   -1.328522810312
 C   -1.155188851094    0.324049643405   -1.318233483944
 N   -2.526262152863    0.510380688718   -1.318308668660
 C   -3.019785647374   -0.728222325327   -1.328638768325
 H   -4.077283560642   -0.982368947159   -1.331585412751
 H   -2.159173823122   -2.703216540423   -1.343340311150
 K    1.232744736683    0.591543366390    5.162340091131
