17

 N   -2.034781907041   -1.696378981858   -1.416700528272
 C   -0.824593840197   -1.041172778182   -1.412738904304
 N    0.408818574106   -1.639850472644   -1.400700619399
 C    1.379241774162   -0.749674331033   -1.412573076372
 N    1.176164936749    0.611963802481   -1.419408236714
 H    1.979992062000    1.231924342236   -1.501396259136
 N    2.704696528399   -1.168349052713   -1.490920379607
 H    3.359232733731   -0.636545828313   -0.923279602877
 H    2.783501615790   -2.169049196648   -1.329337041618
 C   -0.083108805568    1.297997506012   -1.406454450037
 O   -0.110689174673    2.526170590789   -1.410542578465
 C   -1.155893931544    0.324304116738   -1.400253252097
 N   -2.526967233313    0.510635162051   -1.400328436813
 C   -3.020490727824   -0.727967851994   -1.410658536478
 H   -4.077988641092   -0.982114473826   -1.413605180904
 H   -2.159878903572   -2.702962067090   -1.425360079303
 K    1.235478100509    0.590556857400    5.480303618959
