17

 N   -2.035134447266   -1.696251745192   -1.457710412348
 C   -0.824946380422   -1.041045541516   -1.453748788380
 N    0.408466033881   -1.639723235978   -1.441710503475
 C    1.378889233937   -0.749547094367   -1.453582960448
 N    1.175812396524    0.612091039147   -1.460418120790
 H    1.979639521775    1.232051578902   -1.542406143212
 N    2.704343988174   -1.168221816047   -1.531930263683
 H    3.358880193506   -0.636418591647   -0.964289486953
 H    2.783149075565   -2.168921959982   -1.370346925694
 C   -0.083461345793    1.298124742678   -1.447464334113
 O   -0.111041714898    2.526297827455   -1.451552462541
 C   -1.156246471769    0.324431353404   -1.441263136173
 N   -2.527319773538    0.510762398717   -1.441338320889
 C   -3.020843268049   -0.727840615328   -1.451668420554
 H   -4.078341181317   -0.981987237160   -1.454615064980
 H   -2.160231443797   -2.702834830424   -1.466369963379
 K    1.236844782422    0.590063602904    5.639285382873
