17

 N   -2.035839527716   -1.695997271859   -1.539730180501
 C   -0.825651460872   -1.040791068183   -1.535768556533
 N    0.407760953431   -1.639468762645   -1.523730271628
 C    1.378184153487   -0.749292621034   -1.535602728601
 N    1.175107316074    0.612345512480   -1.542437888943
 H    1.978934441325    1.232306052235   -1.624425911365
 N    2.703638907724   -1.167967342714   -1.613950031836
 H    3.358175113056   -0.636164118314   -1.046309255106
 H    2.782443995115   -2.168667486649   -1.452366693847
 C   -0.084166426243    1.298379216011   -1.529484102266
 O   -0.111746795348    2.526552300788   -1.533572230694
 C   -1.156951552219    0.324685826737   -1.523282904326
 N   -2.528024853988    0.511016872050   -1.523358089042
 C   -3.021548348499   -0.727586141995   -1.533688188707
 H   -4.079046261767   -0.981732763827   -1.536634833133
 H   -2.160936524247   -2.702580357091   -1.548389731532
 K    1.239578146248    0.589077093914    5.957248910701
