17

 N   -2.036015797828   -1.695933653526   -1.560235122539
 C   -0.825827730984   -1.040727449850   -1.556273498571
 N    0.407584683319   -1.639405144312   -1.544235213666
 C    1.378007883375   -0.749229002701   -1.556107670639
 N    1.174931045962    0.612409130813   -1.562942830981
 H    1.978758171213    1.232369670568   -1.644930853403
 N    2.703462637612   -1.167903724381   -1.634454973874
 H    3.357998842944   -0.636100499981   -1.066814197144
 H    2.782267725003   -2.168603868316   -1.472871635885
 C   -0.084342696355    1.298442834344   -1.549989044304
 O   -0.111923065460    2.526615919121   -1.554077172732
 C   -1.157127822331    0.324749445070   -1.543787846364
 N   -2.528201124100    0.511080490383   -1.543863031080
 C   -3.021724618611   -0.727522523662   -1.554193130745
 H   -4.079222531879   -0.981669145494   -1.557139775171
 H   -2.161112794359   -2.702516738758   -1.568894673570
 K    1.240261487204    0.588830466666    6.036739792658
