17

 N   -2.036544608166   -1.695742798526   -1.621749948654
 C   -0.826356541322   -1.040536594850   -1.617788324686
 N    0.407055872981   -1.639214289312   -1.605750039781
 C    1.377479073037   -0.749038147701   -1.617622496754
 N    1.174402235624    0.612599985813   -1.624457657096
 H    1.978229360875    1.232560525568   -1.706445679518
 N    2.702933827274   -1.167712869381   -1.695969799989
 H    3.357470032606   -0.635909644981   -1.128329023259
 H    2.781738914665   -2.168413013316   -1.534386462000
 C   -0.084871506693    1.298633689344   -1.611503870419
 O   -0.112451875798    2.526806774121   -1.615591998847
 C   -1.157656632669    0.324940300070   -1.605302672479
 N   -2.528729934438    0.511271345383   -1.605377857195
 C   -3.022253428949   -0.727331668662   -1.615707956860
 H   -4.079751342217   -0.981478290494   -1.618654601286
 H   -2.161641604697   -2.702325883758   -1.630409499685
 K    1.242311510074    0.588090584923    6.275212438529
