17

 N   -2.036720878278   -1.695679180193   -1.642254890692
 C   -0.826532811434   -1.040472976517   -1.638293266724
 N    0.406879602869   -1.639150670979   -1.626254981819
 C    1.377302802925   -0.748974529368   -1.638127438792
 N    1.174225965512    0.612663604146   -1.644962599134
 H    1.978053090763    1.232624143901   -1.726950621556
 N    2.702757557162   -1.167649251048   -1.716474742027
 H    3.357293762494   -0.635846026648   -1.148833965297
 H    2.781562644553   -2.168349394983   -1.554891404038
 C   -0.085047776805    1.298697307677   -1.632008812457
 O   -0.112628145910    2.526870392454   -1.636096940885
 C   -1.157832902781    0.325003918403   -1.625807614517
 N   -2.528906204550    0.511334963716   -1.625882799233
 C   -3.022429699061   -0.727268050329   -1.636212898898
 H   -4.079927612329   -0.981414672161   -1.639159543324
 H   -2.161817874809   -2.702262265425   -1.650914441723
 K    1.242994851030    0.587843957676    6.354703320486
