17

 N   -2.036897148391   -1.695615561860   -1.662759832731
 C   -0.826709081547   -1.040409358184   -1.658798208763
 N    0.406703332756   -1.639087052646   -1.646759923858
 C    1.377126532812   -0.748910911035   -1.658632380831
 N    1.174049695399    0.612727222479   -1.665467541173
 H    1.977876820650    1.232687762234   -1.747455563595
 N    2.702581287049   -1.167585632715   -1.736979684066
 H    3.357117492381   -0.635782408315   -1.169338907336
 H    2.781386374440   -2.168285776650   -1.575396346077
 C   -0.085224046918    1.298760926010   -1.652513754496
 O   -0.112804416023    2.526934010787   -1.656601882924
 C   -1.158009172894    0.325067536736   -1.646312556556
 N   -2.529082474663    0.511398582049   -1.646387741272
 C   -3.022605969174   -0.727204431996   -1.656717840937
 H   -4.080103882442   -0.981351053828   -1.659664485363
 H   -2.161994144922   -2.702198647092   -1.671419383762
 K    1.243678191987    0.587597330428    6.434194202443
