17

 N   -2.037954769066   -1.695233851860   -1.785789484960
 C   -0.827766702222   -1.040027648184   -1.781827860992
 N    0.405645712081   -1.638705342646   -1.769789576087
 C    1.376068912137   -0.748529201035   -1.781662033060
 N    1.172992074724    0.613108932479   -1.788497193402
 H    1.976819199975    1.233069472234   -1.870485215824
 N    2.701523666374   -1.167203922715   -1.860009336295
 H    3.356059871706   -0.635400698315   -1.292368559565
 H    2.780328753765   -2.167904066650   -1.698425998306
 C   -0.086281667593    1.299142636010   -1.775543406725
 O   -0.113862036698    2.527315720787   -1.779631535153
 C   -1.159066793569    0.325449246736   -1.769342208785
 N   -2.530140095338    0.511780292049   -1.769417393501
 C   -3.023663589849   -0.726822721996   -1.779747493166
 H   -4.081161503117   -0.980969343828   -1.782694137592
 H   -2.163051765597   -2.701816937092   -1.794449035991
 K    1.247778237725    0.586117566942    6.911139494185
