17

 N   -2.038659849516   -1.694979378527   -1.867809253113
 C   -0.828471782672   -1.039773174851   -1.863847629145
 N    0.404940631631   -1.638450869313   -1.851809344240
 C    1.375363831687   -0.748274727702   -1.863681801213
 N    1.172286994274    0.613363405812   -1.870516961555
 H    1.976114119525    1.233323945567   -1.952504983977
 N    2.700818585924   -1.166949449382   -1.942029104448
 H    3.355354791256   -0.635146224982   -1.374388327718
 H    2.779623673315   -2.167649593317   -1.780445766459
 C   -0.086986748043    1.299397109343   -1.857563174878
 O   -0.114567117148    2.527570194120   -1.861651303306
 C   -1.159771874019    0.325703720069   -1.851361976938
 N   -2.530845175788    0.512034765382   -1.851437161654
 C   -3.024368670299   -0.726568248663   -1.861767261319
 H   -4.081866583567   -0.980714870495   -1.864713905745
 H   -2.163756846047   -2.701562463759   -1.876468804144
 K    1.250511601551    0.585131057952    7.229103022013
