17

 N   -2.039717470191   -1.694597668528   -1.990838905343
 C   -0.829529403347   -1.039391464852   -1.986877281375
 N    0.403883010956   -1.638069159314   -1.974838996470
 C    1.374306211012   -0.747893017703   -1.986711453443
 N    1.171229373599    0.613745115811   -1.993546613785
 H    1.975056498850    1.233705655566   -2.075534636207
 N    2.699760965249   -1.166567739383   -2.065058756678
 H    3.354297170581   -0.634764514983   -1.497417979948
 H    2.778566052640   -2.167267883318   -1.903475418689
 C   -0.088044368718    1.299778819342   -1.980592827108
 O   -0.115624737823    2.527951904119   -1.984680955536
 C   -1.160829494694    0.326085430068   -1.974391629168
 N   -2.531902796463    0.512416475381   -1.974466813884
 C   -3.025426290974   -0.726186538664   -1.984796913549
 H   -4.082924204242   -0.980333160496   -1.987743557975
 H   -2.164814466722   -2.701180753760   -1.999498456374
 K    1.254611647290    0.583651294466    7.706048313755
