24

 C   -3.468691076800    0.578533371783    0.000000000000
 C   -2.528541076800   -0.588306628217    0.000000000000
 O   -3.141501076800   -1.743056628217    0.000000000000
 C   -2.338881076800   -2.967266628217    0.000000000000
 O   -1.268781076800   -0.479666628217    0.000000000000
 H   -2.915561076800    1.523173371783    0.000000000000
 H   -4.122011076800    0.517433371783    0.882720000000
 H   -4.122011076800    0.517433371783   -0.882720000000
 H   -3.073971076800   -3.775236628217    0.000000000000
 H   -1.721231076800   -2.999006628217    0.905020000000
 H   -1.721231076800   -2.999006628217   -0.905020000000
NA    0.205668923200    0.077753371783    1.697370000000
NA    0.205668923200    0.077753371783   -1.697370000000
 O    1.141055932839    0.431379080971    0.000000000000
 C    2.400810176908    0.540018251853    0.000000000000
 O    3.013776457500    1.694763401813    0.000000000000
 C    2.211154550658    2.918982929331    0.000000000000
 H    2.946251303653    3.726954211393    0.000000000000
 H    1.593509074271    2.950720085453   -0.905014718620
 H    1.593509074271    2.950720085453    0.905014718620
 C    3.340956445947   -0.626818225299    0.000000000000
 H    2.787826946241   -1.571461102505    0.000000000000
 H    3.994278265801   -0.565718140731   -0.882720449218
 H    3.994278265801   -0.565718140731    0.882720449218
