24

 C   -3.575754106405    0.538057890103    0.000000000000
 C   -2.635604106405   -0.628782109897    0.000000000000
 O   -3.248564106405   -1.783532109897    0.000000000000
 C   -2.445944106405   -3.007742109897    0.000000000000
 O   -1.375844106405   -0.520142109897    0.000000000000
 H   -3.022624106405    1.482697890103    0.000000000000
 H   -4.229074106405    0.476957890103    0.882720000000
 H   -4.229074106405    0.476957890103   -0.882720000000
 H   -3.181034106405   -3.815712109897    0.000000000000
 H   -1.828294106405   -3.039482109897    0.905020000000
 H   -1.828294106405   -3.039482109897   -0.905020000000
NA    0.098605893595    0.037277890103    1.697370000000
NA    0.098605893595    0.037277890103   -1.697370000000
 O    1.314609006125    0.496991312048    0.000000000000
 C    2.574363250194    0.605630482930    0.000000000000
 O    3.187329530787    1.760375632890    0.000000000000
 C    2.384707623945    2.984595160408    0.000000000000
 H    3.119804376939    3.792566442470    0.000000000000
 H    1.767062147557    3.016332316530   -0.905014718620
 H    1.767062147557    3.016332316530    0.905014718620
 C    3.514509519233   -0.561205994222    0.000000000000
 H    2.961380019527   -1.505848871428    0.000000000000
 H    4.167831339087   -0.500105909655   -0.882720449218
 H    4.167831339087   -0.500105909655    0.882720449218
