24

 C   -3.754192489080    0.470598753971    0.000000000000
 C   -2.814042489080   -0.696241246029    0.000000000000
 O   -3.427002489080   -1.850991246029    0.000000000000
 C   -2.624382489080   -3.075201246029    0.000000000000
 O   -1.554282489080   -0.587601246029    0.000000000000
 H   -3.201062489080    1.415238753971    0.000000000000
 H   -4.407512489080    0.409498753971    0.882720000000
 H   -4.407512489080    0.409498753971   -0.882720000000
 H   -3.359472489080   -3.883171246029    0.000000000000
 H   -2.006732489080   -3.106941246029    0.905020000000
 H   -2.006732489080   -3.106941246029   -0.905020000000
NA   -0.079832489080   -0.030181246029    1.697370000000
NA   -0.079832489080   -0.030181246029   -1.697370000000
 O    1.603864128270    0.606345030510    0.000000000000
 C    2.863618372339    0.714984201391    0.000000000000
 O    3.476584652931    1.869729351351    0.000000000000
 C    2.673962746089    3.093948878870    0.000000000000
 H    3.409059499084    3.901920160932    0.000000000000
 H    2.056317269701    3.125686034992   -0.905014718620
 H    2.056317269701    3.125686034992    0.905014718620
 C    3.803764641377   -0.451852275761    0.000000000000
 H    3.250635141672   -1.396495152966    0.000000000000
 H    4.457086461232   -0.390752191193   -0.882720449218
 H    4.457086461232   -0.390752191193    0.882720449218
