24

 C   -3.789880165615    0.457106926744    0.000000000000
 C   -2.849730165615   -0.709733073256    0.000000000000
 O   -3.462690165615   -1.864483073256    0.000000000000
 C   -2.660070165615   -3.088693073256    0.000000000000
 O   -1.589970165615   -0.601093073256    0.000000000000
 H   -3.236750165615    1.401746926744    0.000000000000
 H   -4.443200165615    0.396006926744    0.882720000000
 H   -4.443200165615    0.396006926744   -0.882720000000
 H   -3.395160165615   -3.896663073256    0.000000000000
 H   -2.042420165615   -3.120433073256    0.905020000000
 H   -2.042420165615   -3.120433073256   -0.905020000000
NA   -0.115520165615   -0.043673073256    1.697370000000
NA   -0.115520165615   -0.043673073256   -1.697370000000
 O    1.661715152698    0.628215774202    0.000000000000
 C    2.921469396768    0.736854945084    0.000000000000
 O    3.534435677360    1.891600095044    0.000000000000
 C    2.731813770518    3.115819622562    0.000000000000
 H    3.466910523512    3.923790904624    0.000000000000
 H    2.114168294130    3.147556778684   -0.905014718620
 H    2.114168294130    3.147556778684    0.905014718620
 C    3.861615665806   -0.429981532069    0.000000000000
 H    3.308486166100   -1.374624409274    0.000000000000
 H    4.514937485661   -0.368881447501   -0.882720449218
 H    4.514937485661   -0.368881447501    0.882720449218
