24

 C   -6.680581964952   -0.635731078605    0.000000000000
 C   -5.740431964952   -1.802571078605    0.000000000000
 O   -6.353391964952   -2.957321078605    0.000000000000
 C   -5.550771964952   -4.181531078605    0.000000000000
 O   -4.480671964952   -1.693931078605    0.000000000000
 H   -6.127451964952    0.308908921395    0.000000000000
 H   -7.333901964952   -0.696831078605    0.882720000000
 H   -7.333901964952   -0.696831078605   -0.882720000000
 H   -6.285861964952   -4.989501078605    0.000000000000
 H   -4.933121964952   -4.213271078605    0.905020000000
 H   -4.933121964952   -4.213271078605   -0.905020000000
NA   -3.006221964952   -1.136511078605    1.697370000000
NA   -3.006221964952   -1.136511078605   -1.697370000000
 O    6.347648131436    2.399746013280    0.000000000000
 C    7.607402375505    2.508385184161    0.000000000000
 O    8.220368656097    3.663130334121    0.000000000000
 C    7.417746749255    4.887349861639    0.000000000000
 H    8.152843502250    5.695321143701    0.000000000000
 H    6.800101272868    4.919087017762   -0.905014718620
 H    6.800101272868    4.919087017762    0.905014718620
 C    8.547548644543    1.341548707009    0.000000000000
 H    7.994419144838    0.396905829803    0.000000000000
 H    9.200870464398    1.402648791577   -0.882720449218
 H    9.200870464398    1.402648791577    0.882720449218
