24

 C   -3.825567842150    0.443615099518    0.000000000000
 C   -2.885417842150   -0.723224900482    0.000000000000
 O   -3.498377842150   -1.877974900482    0.000000000000
 C   -2.695757842150   -3.102184900482    0.000000000000
 O   -1.625657842150   -0.614584900482    0.000000000000
 H   -3.272437842150    1.388255099518    0.000000000000
 H   -4.478887842150    0.382515099518    0.882720000000
 H   -4.478887842150    0.382515099518   -0.882720000000
 H   -3.430847842150   -3.910154900482    0.000000000000
 H   -2.078107842150   -3.133924900482    0.905020000000
 H   -2.078107842150   -3.133924900482   -0.905020000000
NA   -0.151207842150   -0.057164900482    1.697370000000
NA   -0.151207842150   -0.057164900482   -1.697370000000
 O    1.719566177127    0.650086517894    0.000000000000
 C    2.979320421196    0.758725688776    0.000000000000
 O    3.592286701789    1.913470838736    0.000000000000
 C    2.789664794947    3.137690366254    0.000000000000
 H    3.524761547941    3.945661648316    0.000000000000
 H    2.172019318559    3.169427522376   -0.905014718620
 H    2.172019318559    3.169427522376    0.905014718620
 C    3.919466690235   -0.408110788376    0.000000000000
 H    3.366337190529   -1.352753665582    0.000000000000
 H    4.572788510089   -0.347010703808   -0.882720449218
 H    4.572788510089   -0.347010703808    0.882720449218
