24

 C   -3.861255518685    0.430123272291    0.000000000000
 C   -2.921105518685   -0.736716727709    0.000000000000
 O   -3.534065518685   -1.891466727709    0.000000000000
 C   -2.731445518685   -3.115676727709    0.000000000000
 O   -1.661345518685   -0.628076727709    0.000000000000
 H   -3.308125518685    1.374763272291    0.000000000000
 H   -4.514575518685    0.369023272291    0.882720000000
 H   -4.514575518685    0.369023272291   -0.882720000000
 H   -3.466535518685   -3.923646727709    0.000000000000
 H   -2.113795518685   -3.147416727709    0.905020000000
 H   -2.113795518685   -3.147416727709   -0.905020000000
NA   -0.186895518685   -0.070656727709    1.697370000000
NA   -0.186895518685   -0.070656727709   -1.697370000000
 O    1.777417201556    0.671957261587    0.000000000000
 C    3.037171445625    0.780596432468    0.000000000000
 O    3.650137726218    1.935341582428    0.000000000000
 C    2.847515819376    3.159561109947    0.000000000000
 H    3.582612572370    3.967532392009    0.000000000000
 H    2.229870342988    3.191298266069   -0.905014718620
 H    2.229870342988    3.191298266069    0.905014718620
 C    3.977317714664   -0.386240044684    0.000000000000
 H    3.424188214958   -1.330882921889    0.000000000000
 H    4.630639534518   -0.325139960116   -0.882720449218
 H    4.630639534518   -0.325139960116    0.882720449218
