24

 C   -3.968318548290    0.389647790611    0.000000000000
 C   -3.028168548290   -0.777192209389    0.000000000000
 O   -3.641128548290   -1.931942209389    0.000000000000
 C   -2.838508548290   -3.156152209389    0.000000000000
 O   -1.768408548290   -0.668552209389    0.000000000000
 H   -3.415188548290    1.334287790611    0.000000000000
 H   -4.621638548290    0.328547790611    0.882720000000
 H   -4.621638548290    0.328547790611   -0.882720000000
 H   -3.573598548290   -3.964122209389    0.000000000000
 H   -2.220858548290   -3.187892209389    0.905020000000
 H   -2.220858548290   -3.187892209389   -0.905020000000
NA   -0.293958548290   -0.111132209389    1.697370000000
NA   -0.293958548290   -0.111132209389   -1.697370000000
 O    1.950970274843    0.737569492664    0.000000000000
 C    3.210724518912    0.846208663545    0.000000000000
 O    3.823690799504    2.000953813505    0.000000000000
 C    3.021068892662    3.225173341024    0.000000000000
 H    3.756165645657    4.033144623085    0.000000000000
 H    2.403423416275    3.256910497146   -0.905014718620
 H    2.403423416275    3.256910497146    0.905014718620
 C    4.150870787951   -0.320627813607    0.000000000000
 H    3.597741288245   -1.265270690813    0.000000000000
 H    4.804192607805   -0.259527729039   -0.882720449218
 H    4.804192607805   -0.259527729039    0.882720449218
