24

 C   -4.039693901360    0.362664136158    0.000000000000
 C   -3.099543901360   -0.804175863842    0.000000000000
 O   -3.712503901360   -1.958925863842    0.000000000000
 C   -2.909883901360   -3.183135863842    0.000000000000
 O   -1.839783901360   -0.695535863842    0.000000000000
 H   -3.486563901360    1.307304136158    0.000000000000
 H   -4.693013901360    0.301564136158    0.882720000000
 H   -4.693013901360    0.301564136158   -0.882720000000
 H   -3.644973901360   -3.991105863842    0.000000000000
 H   -2.292233901360   -3.214875863842    0.905020000000
 H   -2.292233901360   -3.214875863842   -0.905020000000
NA   -0.365333901360   -0.138115863842    1.697370000000
NA   -0.365333901360   -0.138115863842   -1.697370000000
 O    2.066672323700    0.781310980048    0.000000000000
 C    3.326426567770    0.889950150930    0.000000000000
 O    3.939392848362    2.044695300890    0.000000000000
 C    3.136770941520    3.268914828408    0.000000000000
 H    3.871867694514    4.076886110470    0.000000000000
 H    2.519125465132    3.300651984530   -0.905014718620
 H    2.519125465132    3.300651984530    0.905014718620
 C    4.266572836808   -0.276886326222    0.000000000000
 H    3.713443337102   -1.221529203428    0.000000000000
 H    4.919894656663   -0.215786241654   -0.882720449218
 H    4.919894656663   -0.215786241654    0.882720449218
