24

 C   -4.111069254430    0.335680481705    0.000000000000
 C   -3.170919254430   -0.831159518295    0.000000000000
 O   -3.783879254430   -1.985909518295    0.000000000000
 C   -2.981259254430   -3.210119518295    0.000000000000
 O   -1.911159254430   -0.722519518295    0.000000000000
 H   -3.557939254430    1.280320481705    0.000000000000
 H   -4.764389254430    0.274580481705    0.882720000000
 H   -4.764389254430    0.274580481705   -0.882720000000
 H   -3.716349254430   -4.018089518295    0.000000000000
 H   -2.363609254430   -3.241859518295    0.905020000000
 H   -2.363609254430   -3.241859518295   -0.905020000000
NA   -0.436709254430   -0.165099518295    1.697370000000
NA   -0.436709254430   -0.165099518295   -1.697370000000
 O    2.182374372558    0.825052467433    0.000000000000
 C    3.442128616627    0.933691638314    0.000000000000
 O    4.055094897220    2.088436788275    0.000000000000
 C    3.252472990378    3.312656315793    0.000000000000
 H    3.987569743372    4.120627597855    0.000000000000
 H    2.634827513990    3.344393471915   -0.905014718620
 H    2.634827513990    3.344393471915    0.905014718620
 C    4.382274885666   -0.233144838838    0.000000000000
 H    3.829145385960   -1.177787716043    0.000000000000
 H    5.035596705520   -0.172044754270   -0.882720449218
 H    5.035596705520   -0.172044754270    0.882720449218
