24

 C   -4.218132284036    0.295205000026    0.000000000000
 C   -3.277982284036   -0.871634999974    0.000000000000
 O   -3.890942284036   -2.026384999974    0.000000000000
 C   -3.088322284036   -3.250594999974    0.000000000000
 O   -2.018222284036   -0.762994999974    0.000000000000
 H   -3.665002284036    1.239845000026    0.000000000000
 H   -4.871452284036    0.234105000026    0.882720000000
 H   -4.871452284036    0.234105000026   -0.882720000000
 H   -3.823412284036   -4.058564999974    0.000000000000
 H   -2.470672284036   -3.282334999974    0.905020000000
 H   -2.470672284036   -3.282334999974   -0.905020000000
NA   -0.543772284036   -0.205574999974    1.697370000000
NA   -0.543772284036   -0.205574999974   -1.697370000000
 O    2.355927445845    0.890664698510    0.000000000000
 C    3.615681689914    0.999303869391    0.000000000000
 O    4.228647970506    2.154049019351    0.000000000000
 C    3.426026063664    3.378268546870    0.000000000000
 H    4.161122816659    4.186239828932    0.000000000000
 H    2.808380587277    3.410005702992   -0.905014718620
 H    2.808380587277    3.410005702992    0.905014718620
 C    4.555827958953   -0.167532607761    0.000000000000
 H    4.002698459247   -1.112175484966    0.000000000000
 H    5.209149778807   -0.106432523193   -0.882720449218
 H    5.209149778807   -0.106432523193    0.882720449218
