24

 C   -4.253819960571    0.281713172799    0.000000000000
 C   -3.313669960571   -0.885126827201    0.000000000000
 O   -3.926629960571   -2.039876827201    0.000000000000
 C   -3.124009960571   -3.264086827201    0.000000000000
 O   -2.053909960571   -0.776486827201    0.000000000000
 H   -3.700689960571    1.226353172799    0.000000000000
 H   -4.907139960571    0.220613172799    0.882720000000
 H   -4.907139960571    0.220613172799   -0.882720000000
 H   -3.859099960571   -4.072056827201    0.000000000000
 H   -2.506359960571   -3.295826827201    0.905020000000
 H   -2.506359960571   -3.295826827201   -0.905020000000
NA   -0.579459960571   -0.219066827201    1.697370000000
NA   -0.579459960571   -0.219066827201   -1.697370000000
 O    2.413778470274    0.912535442202    0.000000000000
 C    3.673532714343    1.021174613084    0.000000000000
 O    4.286498994935    2.175919763044    0.000000000000
 C    3.483877088093    3.400139290562    0.000000000000
 H    4.218973841088    4.208110572624    0.000000000000
 H    2.866231611705    3.431876446684   -0.905014718620
 H    2.866231611705    3.431876446684    0.905014718620
 C    4.613678983381   -0.145661864068    0.000000000000
 H    4.060549483676   -1.090304741274    0.000000000000
 H    5.267000803236   -0.084561779501   -0.882720449218
 H    5.267000803236   -0.084561779501    0.882720449218
