24

 C   -4.289507637106    0.268221345573    0.000000000000
 C   -3.349357637106   -0.898618654427    0.000000000000
 O   -3.962317637106   -2.053368654427    0.000000000000
 C   -3.159697637106   -3.277578654427    0.000000000000
 O   -2.089597637106   -0.789978654427    0.000000000000
 H   -3.736377637106    1.212861345573    0.000000000000
 H   -4.942827637106    0.207121345573    0.882720000000
 H   -4.942827637106    0.207121345573   -0.882720000000
 H   -3.894787637106   -4.085548654427    0.000000000000
 H   -2.542047637106   -3.309318654427    0.905020000000
 H   -2.542047637106   -3.309318654427   -0.905020000000
NA   -0.615147637106   -0.232558654427    1.697370000000
NA   -0.615147637106   -0.232558654427   -1.697370000000
 O    2.471629494702    0.934406185894    0.000000000000
 C    3.731383738772    1.043045356776    0.000000000000
 O    4.344350019364    2.197790506736    0.000000000000
 C    3.541728112522    3.422010034254    0.000000000000
 H    4.276824865516    4.229981316316    0.000000000000
 H    2.924082636134    3.453747190377   -0.905014718620
 H    2.924082636134    3.453747190377    0.905014718620
 C    4.671530007810   -0.123791120376    0.000000000000
 H    4.118400508104   -1.068433997582    0.000000000000
 H    5.324851827665   -0.062691035808   -0.882720449218
 H    5.324851827665   -0.062691035808    0.882720449218
