24

 C   -4.325195313641    0.254729518346    0.000000000000
 C   -3.385045313641   -0.912110481654    0.000000000000
 O   -3.998005313641   -2.066860481654    0.000000000000
 C   -3.195385313641   -3.291070481654    0.000000000000
 O   -2.125285313641   -0.803470481654    0.000000000000
 H   -3.772065313641    1.199369518346    0.000000000000
 H   -4.978515313641    0.193629518346    0.882720000000
 H   -4.978515313641    0.193629518346   -0.882720000000
 H   -3.930475313641   -4.099040481654    0.000000000000
 H   -2.577735313641   -3.322810481654    0.905020000000
 H   -2.577735313641   -3.322810481654   -0.905020000000
NA   -0.650835313641   -0.246050481654    1.697370000000
NA   -0.650835313641   -0.246050481654   -1.697370000000
 O    2.529480519131    0.956276929587    0.000000000000
 C    3.789234763200    1.064916100468    0.000000000000
 O    4.402201043793    2.219661250428    0.000000000000
 C    3.599579136951    3.443880777947    0.000000000000
 H    4.334675889945    4.251852060009    0.000000000000
 H    2.981933660563    3.475617934069   -0.905014718620
 H    2.981933660563    3.475617934069    0.905014718620
 C    4.729381032239   -0.101920376684    0.000000000000
 H    4.176251532533   -1.046563253889    0.000000000000
 H    5.382702852093   -0.040820292116   -0.882720449218
 H    5.382702852093   -0.040820292116    0.882720449218
