24

 C   -4.360882990176    0.241237691120    0.000000000000
 C   -3.420732990176   -0.925602308880    0.000000000000
 O   -4.033692990176   -2.080352308880    0.000000000000
 C   -3.231072990176   -3.304562308880    0.000000000000
 O   -2.160972990176   -0.816962308880    0.000000000000
 H   -3.807752990176    1.185877691120    0.000000000000
 H   -5.014202990176    0.180137691120    0.882720000000
 H   -5.014202990176    0.180137691120   -0.882720000000
 H   -3.966162990176   -4.112532308880    0.000000000000
 H   -2.613422990176   -3.336302308880    0.905020000000
 H   -2.613422990176   -3.336302308880   -0.905020000000
NA   -0.686522990176   -0.259542308880    1.697370000000
NA   -0.686522990176   -0.259542308880   -1.697370000000
 O    2.587331543560    0.978147673279    0.000000000000
 C    3.847085787629    1.086786844161    0.000000000000
 O    4.460052068222    2.241531994121    0.000000000000
 C    3.657430161380    3.465751521639    0.000000000000
 H    4.392526914374    4.273722803701    0.000000000000
 H    3.039784684992    3.497488677761   -0.905014718620
 H    3.039784684992    3.497488677761    0.905014718620
 C    4.787232056668   -0.080049632991    0.000000000000
 H    4.234102556962   -1.024692510197    0.000000000000
 H    5.440553876522   -0.018949548424   -0.882720449218
 H    5.440553876522   -0.018949548424    0.882720449218
