24

 C   -4.467946019781    0.200762209440    0.000000000000
 C   -3.527796019781   -0.966077790560    0.000000000000
 O   -4.140756019781   -2.120827790560    0.000000000000
 C   -3.338136019781   -3.345037790560    0.000000000000
 O   -2.268036019781   -0.857437790560    0.000000000000
 H   -3.914816019781    1.145402209440    0.000000000000
 H   -5.121266019781    0.139662209440    0.882720000000
 H   -5.121266019781    0.139662209440   -0.882720000000
 H   -4.073226019781   -4.153007790560    0.000000000000
 H   -2.720486019781   -3.376777790560    0.905020000000
 H   -2.720486019781   -3.376777790560   -0.905020000000
NA   -0.793586019781   -0.300017790560    1.697370000000
NA   -0.793586019781   -0.300017790560   -1.697370000000
 O    2.760884616847    1.043759904356    0.000000000000
 C    4.020638860916    1.152399075238    0.000000000000
 O    4.633605141508    2.307144225198    0.000000000000
 C    3.830983234666    3.531363752716    0.000000000000
 H    4.566079987661    4.339335034778    0.000000000000
 H    3.213337758279    3.563100908838   -0.905014718620
 H    3.213337758279    3.563100908838    0.905014718620
 C    4.960785129954   -0.014437401915    0.000000000000
 H    4.407655630249   -0.959080279120    0.000000000000
 H    5.614106949809    0.046662682653   -0.882720449218
 H    5.614106949809    0.046662682653    0.882720449218
