24

 C   -4.539321372851    0.173778554987    0.000000000000
 C   -3.599171372851   -0.993061445013    0.000000000000
 O   -4.212131372851   -2.147811445013    0.000000000000
 C   -3.409511372851   -3.372021445013    0.000000000000
 O   -2.339411372851   -0.884421445013    0.000000000000
 H   -3.986191372851    1.118418554987    0.000000000000
 H   -5.192641372851    0.112678554987    0.882720000000
 H   -5.192641372851    0.112678554987   -0.882720000000
 H   -4.144601372851   -4.179991445013    0.000000000000
 H   -2.791861372851   -3.403761445013    0.905020000000
 H   -2.791861372851   -3.403761445013   -0.905020000000
NA   -0.864961372851   -0.327001445013    1.697370000000
NA   -0.864961372851   -0.327001445013   -1.697370000000
 O    2.876586665704    1.087501391741    0.000000000000
 C    4.136340909774    1.196140562622    0.000000000000
 O    4.749307190366    2.350885712582    0.000000000000
 C    3.946685283524    3.575105240101    0.000000000000
 H    4.681782036518    4.383076522162    0.000000000000
 H    3.329039807136    3.606842396223   -0.905014718620
 H    3.329039807136    3.606842396223    0.905014718620
 C    5.076487178812    0.029304085470    0.000000000000
 H    4.523357679106   -0.915338791735    0.000000000000
 H    5.729808998667    0.090404170038   -0.882720449218
 H    5.729808998667    0.090404170038    0.882720449218
