24

 C   -4.610696725921    0.146794900534    0.000000000000
 C   -3.670546725921   -1.020045099466    0.000000000000
 O   -4.283506725921   -2.174795099466    0.000000000000
 C   -3.480886725921   -3.399005099466    0.000000000000
 O   -2.410786725921   -0.911405099466    0.000000000000
 H   -4.057566725921    1.091434900534    0.000000000000
 H   -5.264016725921    0.085694900534    0.882720000000
 H   -5.264016725921    0.085694900534   -0.882720000000
 H   -4.215976725921   -4.206975099466    0.000000000000
 H   -2.863236725921   -3.430745099466    0.905020000000
 H   -2.863236725921   -3.430745099466   -0.905020000000
NA   -0.936336725921   -0.353985099466    1.697370000000
NA   -0.936336725921   -0.353985099466   -1.697370000000
 O    2.992288714562    1.131242879125    0.000000000000
 C    4.252042958631    1.239882050007    0.000000000000
 O    4.865009239224    2.394627199967    0.000000000000
 C    4.062387332382    3.618846727485    0.000000000000
 H    4.797484085376    4.426818009547    0.000000000000
 H    3.444741855994    3.650583883607   -0.905014718620
 H    3.444741855994    3.650583883607    0.905014718620
 C    5.192189227670    0.073045572855    0.000000000000
 H    4.639059727964   -0.871597304351    0.000000000000
 H    5.845511047524    0.134145657423   -0.882720449218
 H    5.845511047524    0.134145657423    0.882720449218
