24

 C   -4.753447432061    0.092827591628    0.000000000000
 C   -3.813297432061   -1.074012408372    0.000000000000
 O   -4.426257432061   -2.228762408372    0.000000000000
 C   -3.623637432061   -3.452972408372    0.000000000000
 O   -2.553537432061   -0.965372408372    0.000000000000
 H   -4.200317432061    1.037467591628    0.000000000000
 H   -5.406767432061    0.031727591628    0.882720000000
 H   -5.406767432061    0.031727591628   -0.882720000000
 H   -4.358727432061   -4.260942408372    0.000000000000
 H   -3.005987432061   -3.484712408372    0.905020000000
 H   -3.005987432061   -3.484712408372   -0.905020000000
NA   -1.079087432061   -0.407952408372    1.697370000000
NA   -1.079087432061   -0.407952408372   -1.697370000000
 O    3.223692812278    1.218725853895    0.000000000000
 C    4.483447056347    1.327365024776    0.000000000000
 O    5.096413336939    2.482110174736    0.000000000000
 C    4.293791430097    3.706329702254    0.000000000000
 H    5.028888183092    4.514300984316    0.000000000000
 H    3.676145953709    3.738066858377   -0.905014718620
 H    3.676145953709    3.738066858377    0.905014718620
 C    5.423593325385    0.160528547624    0.000000000000
 H    4.870463825680   -0.784114329582    0.000000000000
 H    6.076915145240    0.221628632192   -0.882720449218
 H    6.076915145240    0.221628632192    0.882720449218
