24

 C   -4.860510461666    0.052352109948    0.000000000000
 C   -3.920360461666   -1.114487890052    0.000000000000
 O   -4.533320461666   -2.269237890052    0.000000000000
 C   -3.730700461666   -3.493447890052    0.000000000000
 O   -2.660600461666   -1.005847890052    0.000000000000
 H   -4.307380461666    0.996992109948    0.000000000000
 H   -5.513830461666   -0.008747890052    0.882720000000
 H   -5.513830461666   -0.008747890052   -0.882720000000
 H   -4.465790461666   -4.301417890052    0.000000000000
 H   -3.113050461666   -3.525187890052    0.905020000000
 H   -3.113050461666   -3.525187890052   -0.905020000000
NA   -1.186150461666   -0.448427890052    1.697370000000
NA   -1.186150461666   -0.448427890052   -1.697370000000
 O    3.397245885564    1.284338084972    0.000000000000
 C    4.657000129633    1.392977255853    0.000000000000
 O    5.269966410226    2.547722405813    0.000000000000
 C    4.467344503384    3.771941933331    0.000000000000
 H    5.202441256378    4.579913215393    0.000000000000
 H    3.849699026996    3.803679089454   -0.905014718620
 H    3.849699026996    3.803679089454    0.905014718620
 C    5.597146398672    0.226140778701    0.000000000000
 H    5.044016898966   -0.718502098505    0.000000000000
 H    6.250468218526    0.287240863269   -0.882720449218
 H    6.250468218526    0.287240863269    0.882720449218
