24

 C   -5.003261167806   -0.001615198958    0.000000000000
 C   -4.063111167806   -1.168455198958    0.000000000000
 O   -4.676071167806   -2.323205198958    0.000000000000
 C   -3.873451167806   -3.547415198958    0.000000000000
 O   -2.803351167806   -1.059815198958    0.000000000000
 H   -4.450131167806    0.943024801042    0.000000000000
 H   -5.656581167806   -0.062715198958    0.882720000000
 H   -5.656581167806   -0.062715198958   -0.882720000000
 H   -4.608541167806   -4.355385198958    0.000000000000
 H   -3.255801167806   -3.579155198958    0.905020000000
 H   -3.255801167806   -3.579155198958   -0.905020000000
NA   -1.328901167806   -0.502395198958    1.697370000000
NA   -1.328901167806   -0.502395198958   -1.697370000000
 O    3.628649983279    1.371821059741    0.000000000000
 C    4.888404227349    1.480460230622    0.000000000000
 O    5.501370507941    2.635205380582    0.000000000000
 C    4.698748601099    3.859424908101    0.000000000000
 H    5.433845354094    4.667396190163    0.000000000000
 H    4.081103124711    3.891162064223   -0.905014718620
 H    4.081103124711    3.891162064223    0.905014718620
 C    5.828550496387    0.313623753470    0.000000000000
 H    5.275420996682   -0.631019123735    0.000000000000
 H    6.481872316242    0.374723838038   -0.882720449218
 H    6.481872316242    0.374723838038    0.882720449218
