24

 C   -5.146011873946   -0.055582507864    0.000000000000
 C   -4.205861873946   -1.222422507864    0.000000000000
 O   -4.818821873946   -2.377172507864    0.000000000000
 C   -4.016201873946   -3.601382507864    0.000000000000
 O   -2.946101873946   -1.113782507864    0.000000000000
 H   -4.592881873946    0.889057492136    0.000000000000
 H   -5.799331873946   -0.116682507864    0.882720000000
 H   -5.799331873946   -0.116682507864   -0.882720000000
 H   -4.751291873946   -4.409352507864    0.000000000000
 H   -3.398551873946   -3.633122507864    0.905020000000
 H   -3.398551873946   -3.633122507864   -0.905020000000
NA   -1.471651873946   -0.556362507864    1.697370000000
NA   -1.471651873946   -0.556362507864   -1.697370000000
 O    3.860054080995    1.459304034510    0.000000000000
 C    5.119808325064    1.567943205391    0.000000000000
 O    5.732774605657    2.722688355352    0.000000000000
 C    4.930152698814    3.946907882870    0.000000000000
 H    5.665249451809    4.754879164932    0.000000000000
 H    4.312507222427    3.978645038992   -0.905014718620
 H    4.312507222427    3.978645038992    0.905014718620
 C    6.059954594103    0.401106728239    0.000000000000
 H    5.506825094397   -0.543536148966    0.000000000000
 H    6.713276413957    0.462206812807   -0.882720449218
 H    6.713276413957    0.462206812807    0.882720449218
