24

 C   -5.181699550481   -0.069074335090    0.000000000000
 C   -4.241549550481   -1.235914335090    0.000000000000
 O   -4.854509550481   -2.390664335090    0.000000000000
 C   -4.051889550481   -3.614874335090    0.000000000000
 O   -2.981789550481   -1.127274335090    0.000000000000
 H   -4.628569550481    0.875565664910    0.000000000000
 H   -5.835019550481   -0.130174335090    0.882720000000
 H   -5.835019550481   -0.130174335090   -0.882720000000
 H   -4.786979550481   -4.422844335090    0.000000000000
 H   -3.434239550481   -3.646614335090    0.905020000000
 H   -3.434239550481   -3.646614335090   -0.905020000000
NA   -1.507339550481   -0.569854335090    1.697370000000
NA   -1.507339550481   -0.569854335090   -1.697370000000
 O    3.917905105424    1.481174778202    0.000000000000
 C    5.177659349493    1.589813949084    0.000000000000
 O    5.790625630085    2.744559099044    0.000000000000
 C    4.988003723243    3.968778626562    0.000000000000
 H    5.723100476238    4.776749908624    0.000000000000
 H    4.370358246856    4.000515782684   -0.905014718620
 H    4.370358246856    4.000515782684    0.905014718620
 C    6.117805618532    0.422977471932    0.000000000000
 H    5.564676118826   -0.521665405274    0.000000000000
 H    6.771127438386    0.484077556500   -0.882720449218
 H    6.771127438386    0.484077556500    0.882720449218
