24

 C   -5.395825609691   -0.150025298450    0.000000000000
 C   -4.455675609691   -1.316865298450    0.000000000000
 O   -5.068635609691   -2.471615298450    0.000000000000
 C   -4.266015609691   -3.695825298450    0.000000000000
 O   -3.195915609691   -1.208225298450    0.000000000000
 H   -4.842695609691    0.794614701550    0.000000000000
 H   -6.049145609691   -0.211125298450    0.882720000000
 H   -6.049145609691   -0.211125298450   -0.882720000000
 H   -5.001105609691   -4.503795298450    0.000000000000
 H   -3.648365609691   -3.727565298450    0.905020000000
 H   -3.648365609691   -3.727565298450   -0.905020000000
NA   -1.721465609691   -0.650805298450    1.697370000000
NA   -1.721465609691   -0.650805298450   -1.697370000000
 O    4.265011251997    1.612399240356    0.000000000000
 C    5.524765496066    1.721038411238    0.000000000000
 O    6.137731776659    2.875783561198    0.000000000000
 C    5.335109869816    4.100003088716    0.000000000000
 H    6.070206622811    4.907974370778    0.000000000000
 H    4.717464393429    4.131740244838   -0.905014718620
 H    4.717464393429    4.131740244838    0.905014718620
 C    6.464911765105    0.554201934086    0.000000000000
 H    5.911782265399   -0.390440943120    0.000000000000
 H    7.118233584959    0.615302018653   -0.882720449218
 H    7.118233584959    0.615302018653    0.882720449218
