24

 C   -5.431513286226   -0.163517125676    0.000000000000
 C   -4.491363286226   -1.330357125676    0.000000000000
 O   -5.104323286226   -2.485107125676    0.000000000000
 C   -4.301703286226   -3.709317125676    0.000000000000
 O   -3.231603286226   -1.221717125676    0.000000000000
 H   -4.878383286226    0.781122874324    0.000000000000
 H   -6.084833286226   -0.224617125676    0.882720000000
 H   -6.084833286226   -0.224617125676   -0.882720000000
 H   -5.036793286226   -4.517287125676    0.000000000000
 H   -3.684053286226   -3.741057125676    0.905020000000
 H   -3.684053286226   -3.741057125676   -0.905020000000
NA   -1.757153286226   -0.664297125676    1.697370000000
NA   -1.757153286226   -0.664297125676   -1.697370000000
 O    4.322862276426    1.634269984049    0.000000000000
 C    5.582616520495    1.742909154930    0.000000000000
 O    6.195582801087    2.897654304890    0.000000000000
 C    5.392960894245    4.121873832408    0.000000000000
 H    6.128057647240    4.929845114470    0.000000000000
 H    4.775315417858    4.153610988531   -0.905014718620
 H    4.775315417858    4.153610988531    0.905014718620
 C    6.522762789534    0.576072677778    0.000000000000
 H    5.969633289828   -0.368570199428    0.000000000000
 H    7.176084609388    0.637172762346   -0.882720449218
 H    7.176084609388    0.637172762346    0.882720449218
