24

 C   -5.467200962761   -0.177008952903    0.000000000000
 C   -4.527050962761   -1.343848952903    0.000000000000
 O   -5.140010962761   -2.498598952903    0.000000000000
 C   -4.337390962761   -3.722808952903    0.000000000000
 O   -3.267290962761   -1.235208952903    0.000000000000
 H   -4.914070962761    0.767631047097    0.000000000000
 H   -6.120520962761   -0.238108952903    0.882720000000
 H   -6.120520962761   -0.238108952903   -0.882720000000
 H   -5.072480962761   -4.530778952903    0.000000000000
 H   -3.719740962761   -3.754548952903    0.905020000000
 H   -3.719740962761   -3.754548952903   -0.905020000000
NA   -1.792840962761   -0.677788952903    1.697370000000
NA   -1.792840962761   -0.677788952903   -1.697370000000
 O    4.380713300855    1.656140727741    0.000000000000
 C    5.640467544924    1.764779898622    0.000000000000
 O    6.253433825516    2.919525048582    0.000000000000
 C    5.450811918674    4.143744576101    0.000000000000
 H    6.185908671669    4.951715858163    0.000000000000
 H    4.833166442286    4.175481732223   -0.905014718620
 H    4.833166442286    4.175481732223    0.905014718620
 C    6.580613813962    0.597943421470    0.000000000000
 H    6.027484314257   -0.346699455735    0.000000000000
 H    7.233935633817    0.659043506038   -0.882720449218
 H    7.233935633817    0.659043506038    0.882720449218
