24

 C   -5.609951668901   -0.230976261809    0.000000000000
 C   -4.669801668901   -1.397816261809    0.000000000000
 O   -5.282761668901   -2.552566261809    0.000000000000
 C   -4.480141668901   -3.776776261809    0.000000000000
 O   -3.410041668901   -1.289176261809    0.000000000000
 H   -5.056821668901    0.713663738191    0.000000000000
 H   -6.263271668901   -0.292076261809    0.882720000000
 H   -6.263271668901   -0.292076261809   -0.882720000000
 H   -5.215231668901   -4.584746261809    0.000000000000
 H   -3.862491668901   -3.808516261809    0.905020000000
 H   -3.862491668901   -3.808516261809   -0.905020000000
NA   -1.935591668901   -0.731756261809    1.697370000000
NA   -1.935591668901   -0.731756261809   -1.697370000000
 O    4.612117398570    1.743623702510    0.000000000000
 C    5.871871642639    1.852262873392    0.000000000000
 O    6.484837923232    3.007008023352    0.000000000000
 C    5.682216016389    4.231227550870    0.000000000000
 H    6.417312769384    5.039198832932    0.000000000000
 H    5.064570540002    4.262964706992   -0.905014718620
 H    5.064570540002    4.262964706992    0.905014718620
 C    6.812017911678    0.685426396239    0.000000000000
 H    6.258888411972   -0.259216480966    0.000000000000
 H    7.465339731532    0.746526480807   -0.882720449218
 H    7.465339731532    0.746526480807    0.882720449218
