24

 C   -5.824077728112   -0.311927225168    0.000000000000
 C   -4.883927728112   -1.478767225168    0.000000000000
 O   -5.496887728112   -2.633517225168    0.000000000000
 C   -4.694267728112   -3.857727225168    0.000000000000
 O   -3.624167728112   -1.370127225168    0.000000000000
 H   -5.270947728112    0.632712774832    0.000000000000
 H   -6.477397728112   -0.373027225168    0.882720000000
 H   -6.477397728112   -0.373027225168   -0.882720000000
 H   -5.429357728112   -4.665697225168    0.000000000000
 H   -4.076617728112   -3.889467225168    0.905020000000
 H   -4.076617728112   -3.889467225168   -0.905020000000
NA   -2.149717728112   -0.812707225168    1.697370000000
NA   -2.149717728112   -0.812707225168   -1.697370000000
 O    4.959223545143    1.874848164664    0.000000000000
 C    6.218977789212    1.983487335545    0.000000000000
 O    6.831944069805    3.138232485506    0.000000000000
 C    6.029322162963    4.362452013024    0.000000000000
 H    6.764418915957    5.170423295086    0.000000000000
 H    5.411676686575    4.394189169146   -0.905014718620
 H    5.411676686575    4.394189169146    0.905014718620
 C    7.159124058251    0.816650858393    0.000000000000
 H    6.605994558545   -0.127992018812    0.000000000000
 H    7.812445878105    0.877750942961   -0.882720449218
 H    7.812445878105    0.877750942961    0.882720449218
