24

 C   -5.895453081182   -0.338910879621    0.000000000000
 C   -4.955303081182   -1.505750879621    0.000000000000
 O   -5.568263081182   -2.660500879621    0.000000000000
 C   -4.765643081182   -3.884710879621    0.000000000000
 O   -3.695543081182   -1.397110879621    0.000000000000
 H   -5.342323081182    0.605729120379    0.000000000000
 H   -6.548773081182   -0.400010879621    0.882720000000
 H   -6.548773081182   -0.400010879621   -0.882720000000
 H   -5.500733081182   -4.692680879621    0.000000000000
 H   -4.147993081182   -3.916450879621    0.905020000000
 H   -4.147993081182   -3.916450879621   -0.905020000000
NA   -2.221093081182   -0.839690879621    1.697370000000
NA   -2.221093081182   -0.839690879621   -1.697370000000
 O    5.074925594001    1.918589652049    0.000000000000
 C    6.334679838070    2.027228822930    0.000000000000
 O    6.947646118663    3.181973972890    0.000000000000
 C    6.145024211820    4.406193500408    0.000000000000
 H    6.880120964815    5.214164782470    0.000000000000
 H    5.527378735433    4.437930656531   -0.905014718620
 H    5.527378735433    4.437930656531    0.905014718620
 C    7.274826107109    0.860392345778    0.000000000000
 H    6.721696607403   -0.084250531428    0.000000000000
 H    7.928147926963    0.921492430346   -0.882720449218
 H    7.928147926963    0.921492430346    0.882720449218
