24

 C   -5.931140757717   -0.352402706848    0.000000000000
 C   -4.990990757717   -1.519242706848    0.000000000000
 O   -5.603950757717   -2.673992706848    0.000000000000
 C   -4.801330757717   -3.898202706848    0.000000000000
 O   -3.731230757717   -1.410602706848    0.000000000000
 H   -5.378010757717    0.592237293152    0.000000000000
 H   -6.584460757717   -0.413502706848    0.882720000000
 H   -6.584460757717   -0.413502706848   -0.882720000000
 H   -5.536420757717   -4.706172706848    0.000000000000
 H   -4.183680757717   -3.929942706848    0.905020000000
 H   -4.183680757717   -3.929942706848   -0.905020000000
NA   -2.256780757717   -0.853182706848    1.697370000000
NA   -2.256780757717   -0.853182706848   -1.697370000000
 O    5.132776618430    1.940460395741    0.000000000000
 C    6.392530862499    2.049099566622    0.000000000000
 O    7.005497143091    3.203844716583    0.000000000000
 C    6.202875236249    4.428064244101    0.000000000000
 H    6.937971989244    5.236035526163    0.000000000000
 H    5.585229759862    4.459801400223   -0.905014718620
 H    5.585229759862    4.459801400223    0.905014718620
 C    7.332677131538    0.882263089470    0.000000000000
 H    6.779547631832   -0.062379787735    0.000000000000
 H    7.985998951392    0.943363174038   -0.882720449218
 H    7.985998951392    0.943363174038    0.882720449218
