24

 C   -6.002516110787   -0.379386361301    0.000000000000
 C   -5.062366110787   -1.546226361301    0.000000000000
 O   -5.675326110787   -2.700976361301    0.000000000000
 C   -4.872706110787   -3.925186361301    0.000000000000
 O   -3.802606110787   -1.437586361301    0.000000000000
 H   -5.449386110787    0.565253638699    0.000000000000
 H   -6.655836110787   -0.440486361301    0.882720000000
 H   -6.655836110787   -0.440486361301   -0.882720000000
 H   -5.607796110787   -4.733156361301    0.000000000000
 H   -4.255056110787   -3.956926361301    0.905020000000
 H   -4.255056110787   -3.956926361301   -0.905020000000
NA   -2.328156110787   -0.880166361301    1.697370000000
NA   -2.328156110787   -0.880166361301   -1.697370000000
 O    5.248478667287    1.984201883126    0.000000000000
 C    6.508232911357    2.092841054007    0.000000000000
 O    7.121199191949    3.247586203967    0.000000000000
 C    6.318577285107    4.471805731485    0.000000000000
 H    7.053674038101    5.279777013547    0.000000000000
 H    5.700931808719    4.503542887608   -0.905014718620
 H    5.700931808719    4.503542887608    0.905014718620
 C    7.448379180395    0.926004576855    0.000000000000
 H    6.895249680689   -0.018638300351    0.000000000000
 H    8.101701000250    0.987104661423   -0.882720449218
 H    8.101701000250    0.987104661423    0.882720449218
