24

 C   -6.038203787322   -0.392878188527    0.000000000000
 C   -5.098053787322   -1.559718188527    0.000000000000
 O   -5.711013787322   -2.714468188527    0.000000000000
 C   -4.908393787322   -3.938678188527    0.000000000000
 O   -3.838293787322   -1.451078188527    0.000000000000
 H   -5.485073787322    0.551761811473    0.000000000000
 H   -6.691523787322   -0.453978188527    0.882720000000
 H   -6.691523787322   -0.453978188527   -0.882720000000
 H   -5.643483787322   -4.746648188527    0.000000000000
 H   -4.290743787322   -3.970418188527    0.905020000000
 H   -4.290743787322   -3.970418188527   -0.905020000000
NA   -2.363843787322   -0.893658188527    1.697370000000
NA   -2.363843787322   -0.893658188527   -1.697370000000
 O    5.306329691716    2.006072626818    0.000000000000
 C    6.566083935785    2.114711797699    0.000000000000
 O    7.179050216378    3.269456947659    0.000000000000
 C    6.376428309536    4.493676475178    0.000000000000
 H    7.111525062530    5.301647757240    0.000000000000
 H    5.758782833148    4.525413631300   -0.905014718620
 H    5.758782833148    4.525413631300    0.905014718620
 C    7.506230204824    0.947875320547    0.000000000000
 H    6.953100705118    0.003232443342    0.000000000000
 H    8.159552024678    1.008975405115   -0.882720449218
 H    8.159552024678    1.008975405115    0.882720449218
