24

 C   -6.109579140392   -0.419861842980    0.000000000000
 C   -5.169429140392   -1.586701842980    0.000000000000
 O   -5.782389140392   -2.741451842980    0.000000000000
 C   -4.979769140392   -3.965661842980    0.000000000000
 O   -3.909669140392   -1.478061842980    0.000000000000
 H   -5.556449140392    0.524778157020    0.000000000000
 H   -6.762899140392   -0.480961842980    0.882720000000
 H   -6.762899140392   -0.480961842980   -0.882720000000
 H   -5.714859140392   -4.773631842980    0.000000000000
 H   -4.362119140392   -3.997401842980    0.905020000000
 H   -4.362119140392   -3.997401842980   -0.905020000000
NA   -2.435219140392   -0.920641842980    1.697370000000
NA   -2.435219140392   -0.920641842980   -1.697370000000
 O    5.422031740574    2.049814114202    0.000000000000
 C    6.681785984643    2.158453285084    0.000000000000
 O    7.294752265236    3.313198435044    0.000000000000
 C    6.492130358393    4.537417962562    0.000000000000
 H    7.227227111388    5.345389244624    0.000000000000
 H    5.874484882006    4.569155118685   -0.905014718620
 H    5.874484882006    4.569155118685    0.905014718620
 C    7.621932253682    0.991616807932    0.000000000000
 H    7.068802753976    0.046973930726    0.000000000000
 H    8.275254073536    1.052716892500   -0.882720449218
 H    8.275254073536    1.052716892500    0.882720449218
