24

 C   -6.252329846532   -0.473829151886    0.000000000000
 C   -5.312179846532   -1.640669151886    0.000000000000
 O   -5.925139846532   -2.795419151886    0.000000000000
 C   -5.122519846532   -4.019629151886    0.000000000000
 O   -4.052419846532   -1.532029151886    0.000000000000
 H   -5.699199846532    0.470810848114    0.000000000000
 H   -6.905649846532   -0.534929151886    0.882720000000
 H   -6.905649846532   -0.534929151886   -0.882720000000
 H   -5.857609846532   -4.827599151886    0.000000000000
 H   -4.504869846532   -4.051369151886    0.905020000000
 H   -4.504869846532   -4.051369151886   -0.905020000000
NA   -2.577969846532   -0.974609151886    1.697370000000
NA   -2.577969846532   -0.974609151886   -1.697370000000
 O    5.653435838289    2.137297088972    0.000000000000
 C    6.913190082359    2.245936259853    0.000000000000
 O    7.526156362951    3.400681409813    0.000000000000
 C    6.723534456109    4.624900937332    0.000000000000
 H    7.458631209103    5.432872219394    0.000000000000
 H    6.105888979721    4.656638093454   -0.905014718620
 H    6.105888979721    4.656638093454    0.905014718620
 C    7.853336351397    1.079099782701    0.000000000000
 H    7.300206851691    0.134456905496    0.000000000000
 H    8.506658171252    1.140199867269   -0.882720449218
 H    8.506658171252    1.140199867269    0.882720449218
