24

 C   -6.395080552672   -0.527796460792    0.000000000000
 C   -5.454930552672   -1.694636460792    0.000000000000
 O   -6.067890552672   -2.849386460792    0.000000000000
 C   -5.265270552672   -4.073596460792    0.000000000000
 O   -4.195170552672   -1.585996460792    0.000000000000
 H   -5.841950552672    0.416843539208    0.000000000000
 H   -7.048400552672   -0.588896460792    0.882720000000
 H   -7.048400552672   -0.588896460792   -0.882720000000
 H   -6.000360552672   -4.881566460792    0.000000000000
 H   -4.647620552672   -4.105336460792    0.905020000000
 H   -4.647620552672   -4.105336460792   -0.905020000000
NA   -2.720720552672   -1.028576460792    1.697370000000
NA   -2.720720552672   -1.028576460792   -1.697370000000
 O    5.884839936005    2.224780063741    0.000000000000
 C    7.144594180074    2.333419234622    0.000000000000
 O    7.757560460666    3.488164384583    0.000000000000
 C    6.954938553824    4.712383912101    0.000000000000
 H    7.690035306819    5.520355194163    0.000000000000
 H    6.337293077437    4.744121068223   -0.905014718620
 H    6.337293077437    4.744121068223    0.905014718620
 C    8.084740449113    1.166582757470    0.000000000000
 H    7.531610949407    0.221939880265    0.000000000000
 H    8.738062268967    1.227682842038   -0.882720449218
 H    8.738062268967    1.227682842038    0.882720449218
