24

 C   -6.430768229207   -0.541288288019    0.000000000000
 C   -5.490618229207   -1.708128288019    0.000000000000
 O   -6.103578229207   -2.862878288019    0.000000000000
 C   -5.300958229207   -4.087088288019    0.000000000000
 O   -4.230858229207   -1.599488288019    0.000000000000
 H   -5.877638229207    0.403351711981    0.000000000000
 H   -7.084088229207   -0.602388288019    0.882720000000
 H   -7.084088229207   -0.602388288019   -0.882720000000
 H   -6.036048229207   -4.895058288019    0.000000000000
 H   -4.683308229207   -4.118828288019    0.905020000000
 H   -4.683308229207   -4.118828288019   -0.905020000000
NA   -2.756408229207   -1.042068288019    1.697370000000
NA   -2.756408229207   -1.042068288019   -1.697370000000
 O    5.942690960434    2.246650807433    0.000000000000
 C    7.202445204503    2.355289978315    0.000000000000
 O    7.815411485095    3.510035128275    0.000000000000
 C    7.012789578253    4.734254655793    0.000000000000
 H    7.747886331248    5.542225937855    0.000000000000
 H    6.395144101866    4.765991811915   -0.905014718620
 H    6.395144101866    4.765991811915    0.905014718620
 C    8.142591473541    1.188453501163    0.000000000000
 H    7.589461973836    0.243810623957    0.000000000000
 H    8.795913293396    1.249553585731   -0.882720449218
 H    8.795913293396    1.249553585731    0.882720449218
