24

 C   -6.573518935347   -0.595255596925    0.000000000000
 C   -5.633368935347   -1.762095596925    0.000000000000
 O   -6.246328935347   -2.916845596925    0.000000000000
 C   -5.443708935347   -4.141055596925    0.000000000000
 O   -4.373608935347   -1.653455596925    0.000000000000
 H   -6.020388935347    0.349384403075    0.000000000000
 H   -7.226838935347   -0.656355596925    0.882720000000
 H   -7.226838935347   -0.656355596925   -0.882720000000
 H   -6.178798935347   -4.949025596925    0.000000000000
 H   -4.826058935347   -4.172795596925    0.905020000000
 H   -4.826058935347   -4.172795596925   -0.905020000000
NA   -2.899158935347   -1.096035596925    1.697370000000
NA   -2.899158935347   -1.096035596925   -1.697370000000
 O    6.174095058149    2.334133782203    0.000000000000
 C    7.433849302218    2.442772953084    0.000000000000
 O    8.046815582811    3.597518103044    0.000000000000
 C    7.244193675969    4.821737630562    0.000000000000
 H    7.979290428963    5.629708912624    0.000000000000
 H    6.626548199581    4.853474786685   -0.905014718620
 H    6.626548199581    4.853474786685    0.905014718620
 C    8.373995571257    1.275936475932    0.000000000000
 H    7.820866071551    0.331293598726    0.000000000000
 H    9.027317391111    1.337036560500   -0.882720449218
 H    9.027317391111    1.337036560500    0.882720449218
