24

 C   -6.609206611882   -0.608747424152    0.000000000000
 C   -5.669056611882   -1.775587424152    0.000000000000
 O   -6.282016611882   -2.930337424152    0.000000000000
 C   -5.479396611882   -4.154547424152    0.000000000000
 O   -4.409296611882   -1.666947424152    0.000000000000
 H   -6.056076611882    0.335892575848    0.000000000000
 H   -7.262526611882   -0.669847424152    0.882720000000
 H   -7.262526611882   -0.669847424152   -0.882720000000
 H   -6.214486611882   -4.962517424152    0.000000000000
 H   -4.861746611882   -4.186287424152    0.905020000000
 H   -4.861746611882   -4.186287424152   -0.905020000000
NA   -2.934846611882   -1.109527424152    1.697370000000
NA   -2.934846611882   -1.109527424152   -1.697370000000
 O    6.231946082578    2.356004525895    0.000000000000
 C    7.491700326647    2.464643696776    0.000000000000
 O    8.104666607240    3.619388846737    0.000000000000
 C    7.302044700397    4.843608374255    0.000000000000
 H    8.037141453392    5.651579656317    0.000000000000
 H    6.684399224010    4.875345530377   -0.905014718620
 H    6.684399224010    4.875345530377    0.905014718620
 C    8.431846595686    1.297807219624    0.000000000000
 H    7.878717095980    0.353164342419    0.000000000000
 H    9.085168415540    1.358907304192   -0.882720449218
 H    9.085168415540    1.358907304192    0.882720449218
