24

 C   -6.644894288417   -0.622239251378    0.000000000000
 C   -5.704744288417   -1.789079251378    0.000000000000
 O   -6.317704288417   -2.943829251378    0.000000000000
 C   -5.515084288417   -4.168039251378    0.000000000000
 O   -4.444984288417   -1.680439251378    0.000000000000
 H   -6.091764288417    0.322400748622    0.000000000000
 H   -7.298214288417   -0.683339251378    0.882720000000
 H   -7.298214288417   -0.683339251378   -0.882720000000
 H   -6.250174288417   -4.976009251378    0.000000000000
 H   -4.897434288417   -4.199779251378    0.905020000000
 H   -4.897434288417   -4.199779251378   -0.905020000000
NA   -2.970534288417   -1.123019251378    1.697370000000
NA   -2.970534288417   -1.123019251378   -1.697370000000
 O    6.289797107007    2.377875269587    0.000000000000
 C    7.549551351076    2.486514440469    0.000000000000
 O    8.162517631668    3.641259590429    0.000000000000
 C    7.359895724826    4.865479117947    0.000000000000
 H    8.094992477821    5.673450400009    0.000000000000
 H    6.742250248439    4.897216274069   -0.905014718620
 H    6.742250248439    4.897216274069    0.905014718620
 C    8.489697620115    1.319677963317    0.000000000000
 H    7.936568120409    0.375035086111    0.000000000000
 H    9.143019439969    1.380778047884   -0.882720449218
 H    9.143019439969    1.380778047884    0.882720449218
