17

 N   -2.257112421436   -1.817963473922   -0.360810017116
 C   -1.046924354592   -1.162757270246   -0.356848393148
 N    0.186488059711   -1.761434964708   -0.344810108243
 C    1.156911259767   -0.871258823097   -0.356682565216
 N    0.953834422354    0.490379310417   -0.363517725558
 H    1.757661547605    1.110339850172   -0.445505747980
 N    2.482366014004   -1.289933544777   -0.435029868451
 H    3.136902219336   -0.758130320377    0.132610908279
 H    2.561171101395   -2.290633688712   -0.273446530462
 C   -0.305439319963    1.176413013948   -0.350563938881
 O   -0.333019689068    2.404586098725   -0.354652067309
 C   -1.378224445939    0.202719624674   -0.344362740941
 N   -2.749297747708    0.389050669987   -0.344437925657
 C   -3.242821242219   -0.849552344058   -0.354768025322
 H   -4.300319155487   -1.103698965890   -0.357714669748
 H   -2.382209417967   -2.824546559154   -0.369469568147
RB    0.962430533044    0.487276854608    0.636440514394
