17

 N   -2.257731091916   -1.817740187148   -0.432777988107
 C   -1.047543025072   -1.162533983472   -0.428816364139
 N    0.185869389231   -1.761211677934   -0.416778079234
 C    1.156292589287   -0.871035536323   -0.428650536207
 N    0.953215751874    0.490602597191   -0.435485696549
 H    1.757042877125    1.110563136946   -0.517473718971
 N    2.481747343524   -1.289710258003   -0.506997839442
 H    3.136283548856   -0.757907033603    0.060642937288
 H    2.560552430915   -2.290410401938   -0.345414501453
 C   -0.306057990443    1.176636300722   -0.422531909872
 O   -0.333638359548    2.404809385499   -0.426620038300
 C   -1.378843116419    0.202942911448   -0.416330711932
 N   -2.749916418188    0.389273956761   -0.416405896648
 C   -3.243439912699   -0.849329057284   -0.426735996313
 H   -4.300937825967   -1.103475679116   -0.429682640739
 H   -2.382828088447   -2.824323272380   -0.441437539138
RB    0.963531084701    0.486879650221    0.764464191394
