17

 N   -2.258659097637   -1.817405256987   -0.540729944593
 C   -1.048471030793   -1.162199053311   -0.536768320625
 N    0.184941383510   -1.760876747773   -0.524730035720
 C    1.155364583566   -0.870700606162   -0.536602492693
 N    0.952287746153    0.490937527352   -0.543437653035
 H    1.756114871404    1.110898067107   -0.625425675457
 N    2.480819337803   -1.289375327842   -0.614949795928
 H    3.135355543135   -0.757572103442   -0.047309019198
 H    2.559624425194   -2.290075471777   -0.453366457939
 C   -0.306985996164    1.176971230883   -0.530483866358
 O   -0.334566365269    2.405144315660   -0.534571994786
 C   -1.379771122140    0.203277841609   -0.524282668418
 N   -2.750844423909    0.389608886922   -0.524357853134
 C   -3.244367918420   -0.848994127123   -0.534687952799
 H   -4.301865831688   -1.103140748955   -0.537634597225
 H   -2.383756094168   -2.823988342219   -0.549389495624
RB    0.965181912188    0.486283843639    0.956499706894
