17

 N   -2.259587103358   -1.817070326826   -0.648681901079
 C   -1.049399036514   -1.161864123150   -0.644720277111
 N    0.184013377789   -1.760541817612   -0.632681992206
 C    1.154436577845   -0.870365676001   -0.644554449179
 N    0.951359740432    0.491272457513   -0.651389609521
 H    1.755186865683    1.111232997268   -0.733377631943
 N    2.479891332082   -1.289040397681   -0.722901752414
 H    3.134427537414   -0.757237173281   -0.155260975684
 H    2.558696419473   -2.289740541616   -0.561318414425
 C   -0.307914001885    1.177306161044   -0.638435822844
 O   -0.335494370990    2.405479245821   -0.642523951272
 C   -1.380699127861    0.203612771770   -0.632234624904
 N   -2.751772429630    0.389943817083   -0.632309809620
 C   -3.245295924141   -0.848659196962   -0.642639909285
 H   -4.302793837409   -1.102805818794   -0.645586553711
 H   -2.384684099889   -2.823653412058   -0.657341452110
RB    0.966832739674    0.485688037058    1.148535222393
