17

 N   -2.260205773838   -1.816847040051   -0.720649872070
 C   -1.050017706994   -1.161640836375   -0.716688248102
 N    0.183394707309   -1.760318530837   -0.704649963197
 C    1.153817907365   -0.870142389226   -0.716522420170
 N    0.950741069952    0.491495744288   -0.723357580512
 H    1.754568195203    1.111456284043   -0.805345602934
 N    2.479272661602   -1.288817110906   -0.794869723405
 H    3.133808866934   -0.757013886506   -0.227228946675
 H    2.558077748993   -2.289517254841   -0.633286385416
 C   -0.308532672365    1.177529447819   -0.710403793835
 O   -0.336113041470    2.405702532596   -0.714491922263
 C   -1.381317798341    0.203836058545   -0.704202595895
 N   -2.752391100110    0.390167103858   -0.704277780611
 C   -3.245914594621   -0.848435910187   -0.714607880276
 H   -4.303412507889   -1.102582532019   -0.717554524702
 H   -2.385302770369   -2.823430125283   -0.729309423101
RB    0.967933291331    0.485290832670    1.276558899393
