17

 N   -2.260824444319   -1.816623753277   -0.792617843061
 C   -1.050636377475   -1.161417549601   -0.788656219093
 N    0.182776036828   -1.760095244063   -0.776617934188
 C    1.153199236884   -0.869919102452   -0.788490391161
 N    0.950122399471    0.491719031062   -0.795325551503
 H    1.753949524722    1.111679570817   -0.877313573925
 N    2.478653991121   -1.288593824132   -0.866837694396
 H    3.133190196453   -0.756790599732   -0.299196917666
 H    2.557459078512   -2.289293968067   -0.705254356407
 C   -0.309151342846    1.177752734593   -0.782371764826
 O   -0.336731711951    2.405925819370   -0.786459893254
 C   -1.381936468822    0.204059345319   -0.776170566886
 N   -2.753009770591    0.390390390632   -0.776245751602
 C   -3.246533265102   -0.848212623413   -0.786575851267
 H   -4.304031178370   -1.102359245245   -0.789522495693
 H   -2.385921440850   -2.823206838509   -0.801277394092
RB    0.969033842989    0.484893628282    1.404582576393
