17

 N   -2.261752450039   -1.816288823116   -0.900569799547
 C   -1.051564383195   -1.161082619440   -0.896608175579
 N    0.181848031108   -1.759760313902   -0.884569890674
 C    1.152271231164   -0.869584172291   -0.896442347647
 N    0.949194393751    0.492053961223   -0.903277507989
 H    1.753021519002    1.112014500978   -0.985265530411
 N    2.477725985401   -1.288258893971   -0.974789650882
 H    3.132262190733   -0.756455669571   -0.407148874152
 H    2.556531072792   -2.288959037906   -0.813206312893
 C   -0.310079348566    1.178087664754   -0.890323721312
 O   -0.337659717671    2.406260749531   -0.894411849740
 C   -1.382864474542    0.204394275480   -0.884122523372
 N   -2.753937776311    0.390725320793   -0.884197708088
 C   -3.247461270822   -0.847877693252   -0.894527807753
 H   -4.304959184090   -1.102024315084   -0.897474452179
 H   -2.386849446570   -2.822871908348   -0.909229350578
RB    0.970684670475    0.484297821701    1.596618091892
