17

 N   -2.262680455760   -1.815953892955   -1.008521756033
 C   -1.052492388916   -1.160747689279   -1.004560132065
 N    0.180920025387   -1.759425383741   -0.992521847160
 C    1.151343225443   -0.869249242130   -1.004394304133
 N    0.948266388030    0.492388891384   -1.011229464475
 H    1.752093513281    1.112349431139   -1.093217486897
 N    2.476797979680   -1.287923963810   -1.082741607368
 H    3.131334185012   -0.756120739410   -0.515100830638
 H    2.555603067071   -2.288624107745   -0.921158269379
 C   -0.311007354287    1.178422594915   -0.998275677798
 O   -0.338587723392    2.406595679692   -1.002363806226
 C   -1.383792480263    0.204729205641   -0.992074479858
 N   -2.754865782032    0.391060250954   -0.992149664574
 C   -3.248389276543   -0.847542763091   -1.002479764239
 H   -4.305887189811   -1.101689384923   -1.005426408665
 H   -2.387777452291   -2.822536978187   -1.017181307064
RB    0.972335497961    0.483702015119    1.788653607392
