17

 N   -2.262989791000   -1.815842249568   -1.044505741529
 C   -1.052801724156   -1.160636045892   -1.040544117561
 N    0.180610690147   -1.759313740354   -1.028505832656
 C    1.151033890203   -0.869137598743   -1.040378289629
 N    0.947957052790    0.492500534771   -1.047213449971
 H    1.751784178041    1.112461074526   -1.129201472393
 N    2.476488644440   -1.287812320423   -1.118725592864
 H    3.131024849772   -0.756009096023   -0.551084816134
 H    2.555293731831   -2.288512464358   -0.957142254875
 C   -0.311316689527    1.178534238302   -1.034259663294
 O   -0.338897058632    2.406707323079   -1.038347791722
 C   -1.384101815503    0.204840849028   -1.028058465354
 N   -2.755175117272    0.391171894341   -1.028133650070
 C   -3.248698611783   -0.847431119704   -1.038463749735
 H   -4.306196525051   -1.101577741536   -1.041410394161
 H   -2.388086787531   -2.822425334800   -1.053165292560
RB    0.972885773790    0.483503412926    1.852665445892
