17

 N   -2.263608461481   -1.815618962794   -1.116473712520
 C   -1.053420394637   -1.160412759118   -1.112512088552
 N    0.179992019666   -1.759090453580   -1.100473803647
 C    1.150415219722   -0.868914311969   -1.112346260620
 N    0.947338382309    0.492723821545   -1.119181420962
 H    1.751165507560    1.112684361300   -1.201169443384
 N    2.475869973959   -1.287589033649   -1.190693563855
 H    3.130406179291   -0.755785809249   -0.623052787125
 H    2.554675061350   -2.288289177584   -1.029110225866
 C   -0.311935360008    1.178757525076   -1.106227634285
 O   -0.339515729113    2.406930609853   -1.110315762713
 C   -1.384720485984    0.205064135802   -1.100026436345
 N   -2.755793787753    0.391395181115   -1.100101621061
 C   -3.249317282264   -0.847207832930   -1.110431720726
 H   -4.306815195532   -1.101354454762   -1.113378365152
 H   -2.388705458012   -2.822202048026   -1.125133263551
RB    0.973986325448    0.483106208538    1.980689122891
