17

 N   -2.264227131961   -1.815395676020   -1.188441683510
 C   -1.054039065117   -1.160189472344   -1.184480059542
 N    0.179373349186   -1.758867166806   -1.172441774637
 C    1.149796549242   -0.868691025195   -1.184314231610
 N    0.946719711829    0.492947108319   -1.191149391952
 H    1.750546837080    1.112907648074   -1.273137414374
 N    2.475251303479   -1.287365746875   -1.262661534845
 H    3.129787508811   -0.755562522475   -0.695020758115
 H    2.554056390870   -2.288065890810   -1.101078196856
 C   -0.312554030488    1.178980811850   -1.178195605275
 O   -0.340134399593    2.407153896627   -1.182283733703
 C   -1.385339156464    0.205287422576   -1.171994407335
 N   -2.756412458233    0.391618467889   -1.172069592051
 C   -3.249935952744   -0.846984546156   -1.182399691716
 H   -4.307433866012   -1.101131167988   -1.185346336142
 H   -2.389324128492   -2.821978761252   -1.197101234541
RB    0.975086877105    0.482709004150    2.108712799891
