17

 N   -2.264536467201   -1.815284032633   -1.224425669006
 C   -1.054348400357   -1.160077828957   -1.220464045038
 N    0.179064013946   -1.758755523419   -1.208425760133
 C    1.149487214002   -0.868579381808   -1.220298217106
 N    0.946410376589    0.493058751706   -1.227133377448
 H    1.750237501840    1.113019291461   -1.309121399870
 N    2.474941968239   -1.287254103488   -1.298645520341
 H    3.129478173571   -0.755450879088   -0.731004743611
 H    2.553747055630   -2.287954247423   -1.137062182352
 C   -0.312863365728    1.179092455237   -1.214179590771
 O   -0.340443734833    2.407265540014   -1.218267719199
 C   -1.385648491704    0.205399065963   -1.207978392831
 N   -2.756721793473    0.391730111276   -1.208053577547
 C   -3.250245287984   -0.846872902769   -1.218383677212
 H   -4.307743201252   -1.101019524601   -1.221330321638
 H   -2.389633463732   -2.821867117865   -1.233085220037
RB    0.975637152934    0.482510401956    2.172724638391
