17

 N   -2.267011149123   -1.814390885536   -1.512297552969
 C   -1.056823082279   -1.159184681860   -1.508335929001
 N    0.176589332024   -1.757862376322   -1.496297644096
 C    1.147012532080   -0.867686234711   -1.508170101069
 N    0.943935694667    0.493951898803   -1.515005261411
 H    1.747762819918    1.113912438558   -1.596993283833
 N    2.472467286317   -1.286360956391   -1.586517404304
 H    3.127003491649   -0.754557731991   -1.018876627574
 H    2.551272373708   -2.287061100326   -1.424934066315
 C   -0.315338047650    1.179985602334   -1.502051474734
 O   -0.342918416755    2.408158687111   -1.506139603162
 C   -1.388123173626    0.206292213060   -1.495850276794
 N   -2.759196475395    0.392623258373   -1.495925461510
 C   -3.252719969906   -0.845979755672   -1.506255561175
 H   -4.310217883174   -1.100126377504   -1.509202205601
 H   -2.392108145654   -2.820973970768   -1.520957104000
RB    0.980039359564    0.480921584406    2.684819346390
