17

 N   -2.267629819604   -1.814167598762   -1.584265523960
 C   -1.057441752760   -1.158961395086   -1.580303899992
 N    0.175970661543   -1.757639089548   -1.568265615087
 C    1.146393861599   -0.867462947937   -1.580138072060
 N    0.943317024186    0.494175185577   -1.586973232402
 H    1.747144149437    1.114135725332   -1.668961254824
 N    2.471848615836   -1.286137669617   -1.658485375295
 H    3.126384821168   -0.754334445217   -1.090844598565
 H    2.550653703227   -2.286837813552   -1.496902037306
 C   -0.315956718131    1.180208889108   -1.574019445725
 O   -0.343537087236    2.408381973885   -1.578107574153
 C   -1.388741844107    0.206515499834   -1.567818247785
 N   -2.759815145876    0.392846545147   -1.567893432501
 C   -3.253338640387   -0.845756468898   -1.578223532166
 H   -4.310836553655   -1.099903090730   -1.581170176592
 H   -2.392726816135   -2.820750683994   -1.592925074991
RB    0.981139911221    0.480524380018    2.812843023389
