17

 N   -2.268248490084   -1.813944311988   -1.656233494951
 C   -1.058060423240   -1.158738108312   -1.652271870983
 N    0.175351991063   -1.757415802774   -1.640233586078
 C    1.145775191119   -0.867239661163   -1.652106043051
 N    0.942698353706    0.494398472351   -1.658941203393
 H    1.746525478957    1.114359012106   -1.740929225815
 N    2.471229945356   -1.285914382843   -1.730453346286
 H    3.125766150688   -0.754111158443   -1.162812569556
 H    2.550035032747   -2.286614526778   -1.568870008297
 C   -0.316575388611    1.180432175882   -1.645987416716
 O   -0.344155757716    2.408605260659   -1.650075545144
 C   -1.389360514587    0.206738786608   -1.639786218776
 N   -2.760433816356    0.393069831921   -1.639861403492
 C   -3.253957310867   -0.845533182124   -1.650191503157
 H   -4.311455224135   -1.099679803956   -1.653138147583
 H   -2.393345486615   -2.820527397220   -1.664893045982
RB    0.982240462879    0.480127175631    2.940866700389
