17

 N   -2.269176495805   -1.813609381827   -1.764185451437
 C   -1.058988428961   -1.158403178151   -1.760223827469
 N    0.174423985342   -1.757080872613   -1.748185542564
 C    1.144847185398   -0.866904731002   -1.760057999537
 N    0.941770347985    0.494733402512   -1.766893159879
 H    1.745597473236    1.114693942267   -1.848881182301
 N    2.470301939635   -1.285579452682   -1.838405302772
 H    3.124838144967   -0.753776228282   -1.270764526042
 H    2.549107027026   -2.286279596617   -1.676821964783
 C   -0.317503394332    1.180767106043   -1.753939373202
 O   -0.345083763437    2.408940190820   -1.758027501630
 C   -1.390288520308    0.207073716769   -1.747738175262
 N   -2.761361822077    0.393404762082   -1.747813359978
 C   -3.254885316588   -0.845198251963   -1.758143459643
 H   -4.312383229856   -1.099344873795   -1.761090104069
 H   -2.394273492336   -2.820192467059   -1.772845002468
RB    0.983891290365    0.479531369049    3.132902215889
