17

 N   -2.269485831045   -1.813497738440   -1.800169436932
 C   -1.059297764201   -1.158291534764   -1.796207812964
 N    0.174114650102   -1.756969229226   -1.784169528059
 C    1.144537850158   -0.866793087615   -1.796041985032
 N    0.941461012745    0.494845045899   -1.802877145374
 H    1.745288137996    1.114805585654   -1.884865167796
 N    2.469992604395   -1.285467809295   -1.874389288267
 H    3.124528809727   -0.753664584895   -1.306748511537
 H    2.548797691786   -2.286167953230   -1.712805950278
 C   -0.317812729572    1.180878749430   -1.789923358697
 O   -0.345393098677    2.409051834207   -1.794011487125
 C   -1.390597855548    0.207185360156   -1.783722160757
 N   -2.761671157317    0.393516405469   -1.783797345473
 C   -3.255194651828   -0.845086608576   -1.794127445138
 H   -4.312692565096   -1.099233230408   -1.797074089564
 H   -2.394582827576   -2.820080823672   -1.808828987963
RB    0.984441566194    0.479332766855    3.196914054388
