17

 N   -2.270723172006   -1.813051164891   -1.944105378914
 C   -1.060535105162   -1.157844961215   -1.940143754946
 N    0.172877309141   -1.756522655677   -1.928105470041
 C    1.143300509197   -0.866346514066   -1.939977927014
 N    0.940223671784    0.495291619448   -1.946813087356
 H    1.744050797035    1.115252159203   -2.028801109778
 N    2.468755263434   -1.285021235746   -2.018325230249
 H    3.123291468766   -0.753218011346   -1.450684453519
 H    2.547560350825   -2.285721379681   -1.856741892260
 C   -0.319050070533    1.181325322979   -1.933859300679
 O   -0.346630439638    2.409498407756   -1.937947429107
 C   -1.391835196509    0.207631933705   -1.927658102739
 N   -2.762908498278    0.393962979018   -1.927733287455
 C   -3.256431992789   -0.844640035027   -1.938063387120
 H   -4.313929906057   -1.098786656859   -1.941010031546
 H   -2.395820168537   -2.819634250123   -1.952764929945
RB    0.986642669509    0.478538358080    3.452961408388
