17

 N   -2.271341842487   -1.812827878117   -2.016073349905
 C   -1.061153775643   -1.157621674441   -2.012111725937
 N    0.172258638660   -1.756299368903   -2.000073441032
 C    1.142681838716   -0.866123227292   -2.011945898005
 N    0.939605001303    0.495514906222   -2.018781058347
 H    1.743432126554    1.115475445977   -2.100769080769
 N    2.468136592953   -1.284797948972   -2.090293201240
 H    3.122672798285   -0.752994724572   -1.522652424510
 H    2.546941680344   -2.285498092907   -1.928709863251
 C   -0.319668741014    1.181548609753   -2.005827271670
 O   -0.347249110119    2.409721694530   -2.009915400098
 C   -1.392453866990    0.207855220479   -1.999626073730
 N   -2.763527168759    0.394186265792   -1.999701258446
 C   -3.257050663270   -0.844416748253   -2.010031358111
 H   -4.314548576538   -1.098563370085   -2.012978002537
 H   -2.396438839018   -2.819410963349   -2.024732900936
RB    0.987743221166    0.478141153692    3.580985085388
