17

 N   -2.272269848207   -1.812492947956   -2.124025306391
 C   -1.062081781363   -1.157286744280   -2.120063682423
 N    0.171330632940   -1.755964438742   -2.108025397518
 C    1.141753832996   -0.865788297131   -2.119897854491
 N    0.938676995583    0.495849836383   -2.126733014833
 H    1.742504120834    1.115810376138   -2.208721037255
 N    2.467208587233   -1.284463018811   -2.198245157726
 H    3.121744792565   -0.752659794411   -1.630604380996
 H    2.546013674624   -2.285163162746   -2.036661819737
 C   -0.320596746734    1.181883539914   -2.113779228156
 O   -0.348177115839    2.410056624691   -2.117867356584
 C   -1.393381872710    0.208190150640   -2.107578030216
 N   -2.764455174479    0.394521195953   -2.107653214932
 C   -3.257978668990   -0.844081818092   -2.117983314597
 H   -4.315476582258   -1.098228439924   -2.120929959023
 H   -2.397366844738   -2.819076033188   -2.132684857422
RB    0.989394048652    0.477545347111    3.773020600887
