17

 N   -2.272579183448   -1.812381304569   -2.160009291886
 C   -1.062391116604   -1.157175100893   -2.156047667918
 N    0.171021297699   -1.755852795355   -2.144009383013
 C    1.141444497755   -0.865676653744   -2.155881839986
 N    0.938367660342    0.495961479770   -2.162717000328
 H    1.742194785593    1.115922019525   -2.244705022750
 N    2.466899251992   -1.284351375424   -2.234229143221
 H    3.121435457324   -0.752548151024   -1.666588366491
 H    2.545704339383   -2.285051519359   -2.072645805232
 C   -0.320906081975    1.181995183301   -2.149763213651
 O   -0.348486451080    2.410168268078   -2.153851342079
 C   -1.393691207951    0.208301794027   -2.143562015711
 N   -2.764764509720    0.394632839340   -2.143637200427
 C   -3.258288004231   -0.843970174705   -2.153967300092
 H   -4.315785917499   -1.098116796537   -2.156913944518
 H   -2.397676179979   -2.818964389801   -2.168668842917
RB    0.989944324481    0.477346744917    3.837032439387
