17

 N   -2.273507189168   -1.812046374408   -2.267961248372
 C   -1.063319122324   -1.156840170732   -2.263999624404
 N    0.170093291979   -1.755517865194   -2.251961339499
 C    1.140516492035   -0.865341723583   -2.263833796472
 N    0.937439654622    0.496296409931   -2.270668956814
 H    1.741266779873    1.116256949686   -2.352656979236
 N    2.465971246272   -1.284016445263   -2.342181099707
 H    3.120507451604   -0.752213220863   -1.774540322977
 H    2.544776333663   -2.284716589198   -2.180597761718
 C   -0.321834087695    1.182330113462   -2.257715170137
 O   -0.349414456800    2.410503198239   -2.261803298565
 C   -1.394619213671    0.208636724188   -2.251513972197
 N   -2.765692515440    0.394967769501   -2.251589156913
 C   -3.259216009951   -0.843635244544   -2.261919256578
 H   -4.316713923219   -1.097781866376   -2.264865901004
 H   -2.398604185699   -2.818629459640   -2.276620799403
RB    0.991595151967    0.476750938336    4.029067954886
