17

 N   -2.273816524408   -1.811934731021   -2.303945233868
 C   -1.063628457564   -1.156728527345   -2.299983609900
 N    0.169783956739   -1.755406221807   -2.287945324995
 C    1.140207156795   -0.865230080196   -2.299817781968
 N    0.937130319382    0.496408053318   -2.306652942310
 H    1.740957444633    1.116368593073   -2.388640964732
 N    2.465661911032   -1.283904801876   -2.378165085203
 H    3.120198116364   -0.752101577476   -1.810524308473
 H    2.544466998423   -2.284604945811   -2.216581747214
 C   -0.322143422935    1.182441756849   -2.293699155633
 O   -0.349723792040    2.410614841626   -2.297787284061
 C   -1.394928548911    0.208748367575   -2.287497957693
 N   -2.766001850680    0.395079412888   -2.287573142409
 C   -3.259525345191   -0.843523601157   -2.297903242074
 H   -4.317023258459   -1.097670222989   -2.300849886500
 H   -2.398913520939   -2.818517816253   -2.312604784899
RB    0.992145427796    0.476552336142    4.093079793386
