17

 N   -2.274125859649   -1.811823087634   -2.339929219363
 C   -1.063937792805   -1.156616883958   -2.335967595395
 N    0.169474621498   -1.755294578420   -2.323929310490
 C    1.139897821554   -0.865118436809   -2.335801767463
 N    0.936820984141    0.496519696705   -2.342636927805
 H    1.740648109392    1.116480236460   -2.424624950227
 N    2.465352575791   -1.283793158489   -2.414149070698
 H    3.119888781123   -0.751989934089   -1.846508293968
 H    2.544157663182   -2.284493302424   -2.252565732709
 C   -0.322452758176    1.182553400236   -2.329683141128
 O   -0.350033127281    2.410726485013   -2.333771269556
 C   -1.395237884152    0.208860010962   -2.323481943188
 N   -2.766311185921    0.395191056275   -2.323557127904
 C   -3.259834680432   -0.843411957770   -2.333887227569
 H   -4.317332593700   -1.097558579602   -2.336833871995
 H   -2.399222856180   -2.818406172866   -2.348588770394
RB    0.992695703625    0.476353733948    4.157091631886
