17

 N   -2.274435194889   -1.811711444247   -2.375913204859
 C   -1.064247128045   -1.156505240571   -2.371951580891
 N    0.169165286258   -1.755182935033   -2.359913295986
 C    1.139588486314   -0.865006793422   -2.371785752959
 N    0.936511648901    0.496631340092   -2.378620913301
 H    1.740338774152    1.116591879847   -2.460608935723
 N    2.465043240551   -1.283681515102   -2.450133056194
 H    3.119579445883   -0.751878290702   -1.882492279464
 H    2.543848327942   -2.284381659037   -2.288549718205
 C   -0.322762093416    1.182665043623   -2.365667126624
 O   -0.350342462521    2.410838128400   -2.369755255052
 C   -1.395547219392    0.208971654349   -2.359465928684
 N   -2.766620521161    0.395302699662   -2.359541113400
 C   -3.260144015672   -0.843300314383   -2.369871213065
 H   -4.317641928940   -1.097446936215   -2.372817857491
 H   -2.399532191420   -2.818294529479   -2.384572755890
RB    0.993245979454    0.476155131754    4.221103470386
