17

 N   -2.275363200610   -1.811376514086   -2.483865161345
 C   -1.065175133766   -1.156170310410   -2.479903537377
 N    0.168237280537   -1.754848004872   -2.467865252472
 C    1.138660480593   -0.864671863261   -2.479737709445
 N    0.935583643180    0.496966270253   -2.486572869787
 H    1.739410768431    1.116926810008   -2.568560892209
 N    2.464115234830   -1.283346584941   -2.558085012680
 H    3.118651440162   -0.751543360541   -1.990444235950
 H    2.542920322221   -2.284046728876   -2.396501674691
 C   -0.323690099137    1.182999973784   -2.473619083110
 O   -0.351270468242    2.411173058561   -2.477707211538
 C   -1.396475225113    0.209306584510   -2.467417885170
 N   -2.767548526882    0.395637629823   -2.467493069886
 C   -3.261072021393   -0.842965384222   -2.477823169551
 H   -4.318569934661   -1.097112006054   -2.480769813977
 H   -2.400460197141   -2.817959599318   -2.492524712376
RB    0.994896806940    0.475559325173    4.413138985886
