17

 N   -2.275981871090   -1.811153227311   -2.555833132336
 C   -1.065793804246   -1.155947023635   -2.551871508368
 N    0.167618610057   -1.754624718097   -2.539833223463
 C    1.138041810113   -0.864448576486   -2.551705680436
 N    0.934964972700    0.497189557028   -2.558540840778
 H    1.738792097951    1.117150096783   -2.640528863200
 N    2.463496564350   -1.283123298166   -2.630052983671
 H    3.118032769682   -0.751320073766   -2.062412206941
 H    2.542301651741   -2.283823442101   -2.468469645682
 C   -0.324308769617    1.183223260559   -2.545587054101
 O   -0.351889138722    2.411396345336   -2.549675182529
 C   -1.397093895593    0.209529871285   -2.539385856161
 N   -2.768167197362    0.395860916598   -2.539461040877
 C   -3.261690691873   -0.842742097447   -2.549791140542
 H   -4.319188605141   -1.096888719279   -2.552737784968
 H   -2.401078867621   -2.817736312543   -2.564492683367
RB    0.995997358597    0.475162120785    4.541162662885
