17

 N   -2.277219212051   -1.810706653763   -2.699769074317
 C   -1.067031145207   -1.155500450087   -2.695807450349
 N    0.166381269096   -1.754178144549   -2.683769165444
 C    1.136804469152   -0.864002002938   -2.695641622417
 N    0.933727631739    0.497636130576   -2.702476782759
 H    1.737554756990    1.117596670331   -2.784464805181
 N    2.462259223389   -1.282676724618   -2.773988925652
 H    3.116795428721   -0.750873500218   -2.206348148922
 H    2.541064310780   -2.283376868553   -2.612405587663
 C   -0.325546110578    1.183669834107   -2.689522996082
 O   -0.353126479683    2.411842918884   -2.693611124510
 C   -1.398331236554    0.209976444833   -2.683321798142
 N   -2.769404538323    0.396307490146   -2.683396982858
 C   -3.262928032834   -0.842295523899   -2.693727082523
 H   -4.320425946102   -1.096442145731   -2.696673726949
 H   -2.402316208582   -2.817289738995   -2.708428625348
RB    0.998198461912    0.474367712010    4.797210016885
