17

 N   -2.277528547291   -1.810595010376   -2.735753059813
 C   -1.067340480447   -1.155388806700   -2.731791435845
 N    0.166071933856   -1.754066501162   -2.719753150940
 C    1.136495133912   -0.863890359551   -2.731625607913
 N    0.933418296499    0.497747773963   -2.738460768255
 H    1.737245421750    1.117708313718   -2.820448790677
 N    2.461949888149   -1.282565081231   -2.809972911148
 H    3.116486093481   -0.750761856831   -2.242332134418
 H    2.540754975540   -2.283265225166   -2.648389573159
 C   -0.325855445818    1.183781477494   -2.725506981578
 O   -0.353435814923    2.411954562271   -2.729595110006
 C   -1.398640571794    0.210088088220   -2.719305783638
 N   -2.769713873563    0.396419133533   -2.719380968354
 C   -3.263237368074   -0.842183880512   -2.729711068019
 H   -4.320735281342   -1.096330502344   -2.732657712445
 H   -2.402625543822   -2.817178095608   -2.744412610844
RB    0.998748737741    0.474169109816    4.861221855385
