17

 N   -2.278456553012   -1.810260080215   -2.843705016299
 C   -1.068268486168   -1.155053876539   -2.839743392331
 N    0.165143928135   -1.753731571001   -2.827705107426
 C    1.135567128191   -0.863555429390   -2.839577564399
 N    0.932490290778    0.498082704124   -2.846412724741
 H    1.736317416029    1.118043243879   -2.928400747163
 N    2.461021882428   -1.282230151070   -2.917924867634
 H    3.115558087760   -0.750426926670   -2.350284090904
 H    2.539826969819   -2.282930295005   -2.756341529645
 C   -0.326783451539    1.184116407655   -2.833458938064
 O   -0.354363820644    2.412289492432   -2.837547066492
 C   -1.399568577515    0.210423018381   -2.827257740124
 N   -2.770641879284    0.396754063694   -2.827332924840
 C   -3.264165373795   -0.841848950351   -2.837663024505
 H   -4.321663287063   -1.095995572183   -2.840609668931
 H   -2.403553549543   -2.816843165447   -2.852364567330
RB    1.000399565227    0.473573303234    5.053257370884
