17

 N   -2.278765888252   -1.810148436828   -2.879689001794
 C   -1.068577821408   -1.154942233152   -2.875727377826
 N    0.164834592895   -1.753619927614   -2.863689092921
 C    1.135257792951   -0.863443786003   -2.875561549894
 N    0.932180955538    0.498194347511   -2.882396710236
 H    1.736008080789    1.118154887266   -2.964384732658
 N    2.460712547188   -1.282118507683   -2.953908853129
 H    3.115248752520   -0.750315283283   -2.386268076399
 H    2.539517634579   -2.282818651618   -2.792325515140
 C   -0.327092786779    1.184228051042   -2.869442923559
 O   -0.354673155884    2.412401135819   -2.873531051987
 C   -1.399877912755    0.210534661768   -2.863241725619
 N   -2.770951214524    0.396865707081   -2.863316910335
 C   -3.264474709035   -0.841737306964   -2.873647010000
 H   -4.321972622303   -1.095883928796   -2.876593654426
 H   -2.403862884783   -2.816731522060   -2.888348552825
RB    1.000949841056    0.473374701040    5.117269209384
