17

 N   -2.280931234934   -1.809366933119   -3.131576900262
 C   -1.070743168090   -1.154160729443   -3.127615276294
 N    0.162669246213   -1.752838423905   -3.115576991389
 C    1.133092446269   -0.862662282294   -3.127449448362
 N    0.930015608856    0.498975851220   -3.134284608704
 H    1.733842734107    1.118936390975   -3.216272631126
 N    2.458547200506   -1.281337003974   -3.205796751597
 H    3.113083405838   -0.749533779574   -2.638155974867
 H    2.537352287897   -2.282037147909   -3.044213413608
 C   -0.329258133461    1.185009554751   -3.121330822027
 O   -0.356838502566    2.413182639528   -3.125418950455
 C   -1.402043259437    0.211316165477   -3.115129624087
 N   -2.773116561206    0.397647210790   -3.115204808803
 C   -3.266640055717   -0.840955803255   -3.125534908468
 H   -4.324137968985   -1.095102425087   -3.128481552894
 H   -2.406028231465   -2.815950018351   -3.140236451293
RB    1.004801771857    0.471984485684    5.565352078883
