17

 N   -2.281549905414   -1.809143646344   -3.203544871253
 C   -1.071361838570   -1.153937442668   -3.199583247285
 N    0.162050575733   -1.752615137130   -3.187544962380
 C    1.132473775789   -0.862438995519   -3.199417419353
 N    0.929396938376    0.499199137995   -3.206252579695
 H    1.733224063627    1.119159677750   -3.288240602117
 N    2.457928530026   -1.281113717199   -3.277764722588
 H    3.112464735358   -0.749310492799   -2.710123945858
 H    2.536733617417   -2.281813861134   -3.116181384599
 C   -0.329876803941    1.185232841526   -3.193298793018
 O   -0.357457173046    2.413405926303   -3.197386921446
 C   -1.402661929917    0.211539452252   -3.187097595078
 N   -2.773735231686    0.397870497565   -3.187172779794
 C   -3.267258726197   -0.840732516480   -3.197502879459
 H   -4.324756639465   -1.094879138312   -3.200449523885
 H   -2.406646901945   -2.815726731576   -3.212204422284
RB    1.005902323515    0.471587281296    5.693375755883
