17

 N   -2.281859240654   -1.809032002957   -3.239528856748
 C   -1.071671173810   -1.153825799281   -3.235567232780
 N    0.161741240493   -1.752503493743   -3.223528947875
 C    1.132164440549   -0.862327352132   -3.235401404848
 N    0.929087603136    0.499310781382   -3.242236565190
 H    1.732914728387    1.119271321137   -3.324224587612
 N    2.457619194786   -1.281002073812   -3.313748708083
 H    3.112155400118   -0.749198849412   -2.746107931353
 H    2.536424282177   -2.281702217747   -3.152165370094
 C   -0.330186139181    1.185344484913   -3.229282778513
 O   -0.357766508286    2.413517569690   -3.233370906941
 C   -1.402971265157    0.211651095639   -3.223081580573
 N   -2.774044566926    0.397982140952   -3.223156765289
 C   -3.267568061437   -0.840620873093   -3.233486864954
 H   -4.325065974705   -1.094767494925   -3.236433509380
 H   -2.406956237185   -2.815615088189   -3.248188407779
RB    1.006452599344    0.471388679102    5.757387594382
