17

 N   -2.282477911135   -1.808808716183   -3.311496827739
 C   -1.072289844291   -1.153602512507   -3.307535203771
 N    0.161122570012   -1.752280206969   -3.295496918866
 C    1.131545770068   -0.862104065358   -3.307369375839
 N    0.928468932655    0.499534068156   -3.314204536181
 H    1.732296057906    1.119494607911   -3.396192558603
 N    2.457000524305   -1.280778787038   -3.385716679074
 H    3.111536729637   -0.748975562638   -2.818075902344
 H    2.535805611696   -2.281478930973   -3.224133341085
 C   -0.330804809662    1.185567771687   -3.301250749504
 O   -0.358385178767    2.413740856464   -3.305338877932
 C   -1.403589935638    0.211874382413   -3.295049551564
 N   -2.774663237407    0.398205427726   -3.295124736280
 C   -3.268186731918   -0.840397586319   -3.305454835945
 H   -4.325684645186   -1.094544208151   -3.308401480371
 H   -2.407574907666   -2.815391801415   -3.320156378770
RB    1.007553151001    0.470991474715    5.885411271382
