17

 N   -2.283405916856   -1.808473786022   -3.419448784225
 C   -1.073217850012   -1.153267582346   -3.415487160257
 N    0.160194564291   -1.751945276808   -3.403448875352
 C    1.130617764347   -0.861769135197   -3.415321332325
 N    0.927540926934    0.499868998317   -3.422156492667
 H    1.731368052185    1.119829538072   -3.504144515089
 N    2.456072518584   -1.280443856877   -3.493668635560
 H    3.110608723916   -0.748640632477   -2.926027858830
 H    2.534877605975   -2.281144000812   -3.332085297571
 C   -0.331732815383    1.185902701848   -3.409202705990
 O   -0.359313184488    2.414075786625   -3.413290834418
 C   -1.404517941359    0.212209312574   -3.403001508050
 N   -2.775591243128    0.398540357887   -3.403076692766
 C   -3.269114737639   -0.840062656158   -3.413406792431
 H   -4.326612650907   -1.094209277990   -3.416353436857
 H   -2.408502913387   -2.815056871254   -3.428108335256
RB    1.009203978487    0.470395668133    6.077446786882
