10

 C    1.244135672791   -0.911344117818   -0.562953268188
 C    0.144836672791    0.137515882182   -0.562953268188
 N   -1.134771327209   -0.366273117818   -0.562953268188
 H   -1.909444327209    0.284310882182   -0.562953268188
 H   -1.321442327209   -1.358324117818   -0.562953268188
 O    0.366428672791    1.350517882182   -0.562953268188
 H    2.214800672791   -0.402199117818   -0.562953268188
 H    1.164497672791   -1.552349117818    0.329293731812
 H    1.164497672791   -1.552349117818   -1.455200268188
LI   -1.134771327209   -0.366273117818    4.737046731812
