10

 C    1.244135672791   -0.911344117818   -0.647927346405
 C    0.144836672791    0.137515882182   -0.647927346405
 N   -1.134771327209   -0.366273117818   -0.647927346405
 H   -1.909444327209    0.284310882182   -0.647927346405
 H   -1.321442327209   -1.358324117818   -0.647927346405
 O    0.366428672791    1.350517882182   -0.647927346405
 H    2.214800672791   -0.402199117818   -0.647927346405
 H    1.164497672791   -1.552349117818    0.244319653595
 H    1.164497672791   -1.552349117818   -1.540174346405
LI   -1.134771327209   -0.366273117818    5.452072653595
