25

 C    0.182553851954    2.679865285432    0.000000000000
 H    0.394773851954    3.757315285432    0.000000000000
 H    0.652103851954    2.261905285432    0.906420000000
 H    0.652103851954    2.261905285432   -0.906420000000
 C   -1.316636148046    2.437545285432    0.000000000000
 H   -1.790316148046    2.871665285432   -0.895790000000
 H   -1.790316148046    2.871665285432    0.895790000000
 O   -1.538896148046    1.008715285432    0.000000000000
 C   -2.947666148046    0.700775285432    0.000000000000
 H   -3.425496148046    1.115305285432   -0.900450000000
 H   -3.425496148046    1.115305285432    0.900450000000
 H   -3.044326148046   -0.391344714568    0.000000000000
NA    0.326623851954   -0.214094714568    0.000000000000
 O    1.413870275803   -0.926762388753    0.000000000000
 C    2.822637712811   -0.618825984076    0.000000000000
 H    3.300456979909   -1.033353759126    0.900445254639
 H    3.300456979909   -1.033353759126   -0.900445254639
 H    2.919296698736    0.473294921566    0.000000000000
 C    1.191604848283   -2.355588130343    0.000000000000
 H    1.665288510976   -2.789710556595    0.895794210030
 H    1.665288510976   -2.789710556595   -0.895794210030
 C   -0.307588118085   -2.597906664699    0.000000000000
 H   -0.519811354786   -3.675354909537    0.000000000000
 H   -0.777140400420   -2.179943271401   -0.906416394885
 H   -0.777140400420   -2.179943271401    0.906416394885
