25

 C    0.112355358677    2.725878954310    0.000000000000
 H    0.324575358677    3.803328954310    0.000000000000
 H    0.581905358677    2.307918954310    0.906420000000
 H    0.581905358677    2.307918954310   -0.906420000000
 C   -1.386834641323    2.483558954310    0.000000000000
 H   -1.860514641323    2.917678954310   -0.895790000000
 H   -1.860514641323    2.917678954310    0.895790000000
 O   -1.609094641323    1.054728954310    0.000000000000
 C   -3.017864641323    0.746788954310    0.000000000000
 H   -3.495694641323    1.161318954310   -0.900450000000
 H   -3.495694641323    1.161318954310    0.900450000000
 H   -3.114524641323   -0.345331045690    0.000000000000
NA    0.256425358677   -0.168081045690    0.000000000000
 O    1.510940463117   -0.990389900520    0.000000000000
 C    2.919707900125   -0.682453495842    0.000000000000
 H    3.397527167224   -1.096981270892    0.900445254639
 H    3.397527167224   -1.096981270892   -0.900445254639
 H    3.016366886050    0.409667409800    0.000000000000
 C    1.288675035597   -2.419215642109    0.000000000000
 H    1.762358698290   -2.853338068361    0.895794210030
 H    1.762358698290   -2.853338068361   -0.895794210030
 C   -0.210517930771   -2.661534176465    0.000000000000
 H   -0.422741167472   -3.738982421303    0.000000000000
 H   -0.680070213105   -2.243570783167   -0.906416394885
 H   -0.680070213105   -2.243570783167    0.906416394885
