25

 C    0.042156865399    2.771892623187    0.000000000000
 H    0.254376865399    3.849342623187    0.000000000000
 H    0.511706865399    2.353932623187    0.906420000000
 H    0.511706865399    2.353932623187   -0.906420000000
 C   -1.457033134601    2.529572623187    0.000000000000
 H   -1.930713134601    2.963692623187   -0.895790000000
 H   -1.930713134601    2.963692623187    0.895790000000
 O   -1.679293134601    1.100742623187    0.000000000000
 C   -3.088063134601    0.792802623187    0.000000000000
 H   -3.565893134601    1.207332623187   -0.900450000000
 H   -3.565893134601    1.207332623187    0.900450000000
 H   -3.184723134601   -0.299317376813    0.000000000000
NA    0.186226865399   -0.122067376813    0.000000000000
 O    1.608010650432   -1.054017412286    0.000000000000
 C    3.016778087440   -0.746081007608    0.000000000000
 H    3.494597354538   -1.160608782658    0.900445254639
 H    3.494597354538   -1.160608782658   -0.900445254639
 H    3.113437073365    0.346039898033    0.000000000000
 C    1.385745222912   -2.482843153875    0.000000000000
 H    1.859428885605   -2.916965580127    0.895794210030
 H    1.859428885605   -2.916965580127   -0.895794210030
 C   -0.113447743456   -2.725161688232    0.000000000000
 H   -0.325670980157   -3.802609933069    0.000000000000
 H   -0.583000025791   -2.307198294934   -0.906416394885
 H   -0.583000025791   -2.307198294934    0.906416394885
