25

 C   -0.133339367795    2.886926795382    0.000000000000
 H    0.078880632205    3.964376795382    0.000000000000
 H    0.336210632205    2.468966795382    0.906420000000
 H    0.336210632205    2.468966795382   -0.906420000000
 C   -1.632529367795    2.644606795382    0.000000000000
 H   -2.106209367795    3.078726795382   -0.895790000000
 H   -2.106209367795    3.078726795382    0.895790000000
 O   -1.854789367795    1.215776795382    0.000000000000
 C   -3.263559367795    0.907836795382    0.000000000000
 H   -3.741389367795    1.322366795382   -0.900450000000
 H   -3.741389367795    1.322366795382    0.900450000000
 H   -3.360219367795   -0.184283204618    0.000000000000
NA    0.010730632205   -0.007033204618    0.000000000000
 O    1.850686118718   -1.213086191701    0.000000000000
 C    3.259453555726   -0.905149787024    0.000000000000
 H    3.737272822824   -1.319677562073    0.900445254639
 H    3.737272822824   -1.319677562073   -0.900445254639
 H    3.356112541651    0.186971118618    0.000000000000
 C    1.628420691198   -2.641911933291    0.000000000000
 H    2.102104353891   -3.076034359542    0.895794210030
 H    2.102104353891   -3.076034359542   -0.895794210030
 C    0.129227724830   -2.884230467647    0.000000000000
 H   -0.082995511871   -3.961678712485    0.000000000000
 H   -0.340324557505   -2.466267074349   -0.906416394885
 H   -0.340324557505   -2.466267074349    0.906416394885
