25

 C   -0.379034094267    3.047974636454    0.000000000000
 H   -0.166814094267    4.125424636454    0.000000000000
 H    0.090515905733    2.630014636454    0.906420000000
 H    0.090515905733    2.630014636454   -0.906420000000
 C   -1.878224094267    2.805654636454    0.000000000000
 H   -2.351904094267    3.239774636454   -0.895790000000
 H   -2.351904094267    3.239774636454    0.895790000000
 O   -2.100484094267    1.376824636454    0.000000000000
 C   -3.509254094267    1.068884636454    0.000000000000
 H   -3.987084094267    1.483414636454   -0.900450000000
 H   -3.987084094267    1.483414636454    0.900450000000
 H   -3.605914094267   -0.023235363546    0.000000000000
NA   -0.234964094267    0.154014636454    0.000000000000
 O    2.190431774318   -1.435782482883    0.000000000000
 C    3.599199211326   -1.127846078205    0.000000000000
 H    4.077018478425   -1.542373853255    0.900445254639
 H    4.077018478425   -1.542373853255   -0.900445254639
 H    3.695858197252   -0.035725172563    0.000000000000
 C    1.968166346799   -2.864608224472    0.000000000000
 H    2.441850009491   -3.298730650724    0.895794210030
 H    2.441850009491   -3.298730650724   -0.895794210030
 C    0.468973380430   -3.106926758828    0.000000000000
 H    0.256750143729   -4.184375003666    0.000000000000
 H   -0.000578901904   -2.688963365530   -0.906416394885
 H   -0.000578901904   -2.688963365530    0.906416394885
