25

 C   -0.414133340906    3.070981470893    0.000000000000
 H   -0.201913340906    4.148431470893    0.000000000000
 H    0.055416659094    2.653021470893    0.906420000000
 H    0.055416659094    2.653021470893   -0.906420000000
 C   -1.913323340906    2.828661470893    0.000000000000
 H   -2.387003340906    3.262781470893   -0.895790000000
 H   -2.387003340906    3.262781470893    0.895790000000
 O   -2.135583340906    1.399831470893    0.000000000000
 C   -3.544353340906    1.091891470893    0.000000000000
 H   -4.022183340906    1.506421470893   -0.900450000000
 H   -4.022183340906    1.506421470893    0.900450000000
 H   -3.641013340906   -0.000228529107    0.000000000000
NA   -0.270063340906    0.177021470893    0.000000000000
 O    2.238966867975   -1.467596238766    0.000000000000
 C    3.647734304983   -1.159659834088    0.000000000000
 H    4.125553572082   -1.574187609138    0.900445254639
 H    4.125553572082   -1.574187609138   -0.900445254639
 H    3.744393290909   -0.067538928446    0.000000000000
 C    2.016701440456   -2.896421980355    0.000000000000
 H    2.490385103149   -3.330544406607    0.895794210030
 H    2.490385103149   -3.330544406607   -0.895794210030
 C    0.517508474088   -3.138740514712    0.000000000000
 H    0.305285237387   -4.216188759549    0.000000000000
 H    0.047956191753   -2.720777121414   -0.906416394885
 H    0.047956191753   -2.720777121414    0.906416394885
