25

 C   -0.449232587545    3.093988305332    0.000000000000
 H   -0.237012587545    4.171438305332    0.000000000000
 H    0.020317412455    2.676028305332    0.906420000000
 H    0.020317412455    2.676028305332   -0.906420000000
 C   -1.948422587545    2.851668305332    0.000000000000
 H   -2.422102587545    3.285788305332   -0.895790000000
 H   -2.422102587545    3.285788305332    0.895790000000
 O   -2.170682587545    1.422838305332    0.000000000000
 C   -3.579452587545    1.114898305332    0.000000000000
 H   -4.057282587545    1.529428305332   -0.900450000000
 H   -4.057282587545    1.529428305332    0.900450000000
 H   -3.676112587545    0.022778305332    0.000000000000
NA   -0.305162587545    0.200028305332    0.000000000000
 O    2.287501961633   -1.499409994649    0.000000000000
 C    3.696269398641   -1.191473589971    0.000000000000
 H    4.174088665739   -1.606001365021    0.900445254639
 H    4.174088665739   -1.606001365021   -0.900445254639
 H    3.792928384566   -0.099352684330    0.000000000000
 C    2.065236534113   -2.928235736238    0.000000000000
 H    2.538920196806   -3.362358162490    0.895794210030
 H    2.538920196806   -3.362358162490   -0.895794210030
 C    0.566043567745   -3.170554270595    0.000000000000
 H    0.353820331044   -4.248002515432    0.000000000000
 H    0.096491285410   -2.752590877297   -0.906416394885
 H    0.096491285410   -2.752590877297    0.906416394885
