25

 C   -0.624728820739    3.209022477526    0.000000000000
 H   -0.412508820739    4.286472477526    0.000000000000
 H   -0.155178820739    2.791062477526    0.906420000000
 H   -0.155178820739    2.791062477526   -0.906420000000
 C   -2.123918820739    2.966702477526    0.000000000000
 H   -2.597598820739    3.400822477526   -0.895790000000
 H   -2.597598820739    3.400822477526    0.895790000000
 O   -2.346178820739    1.537872477526    0.000000000000
 C   -3.754948820739    1.229932477526    0.000000000000
 H   -4.232778820739    1.644462477526   -0.900450000000
 H   -4.232778820739    1.644462477526    0.900450000000
 H   -3.851608820739    0.137812477526    0.000000000000
NA   -0.480658820739    0.315062477526    0.000000000000
 O    2.530177429919   -1.658478774064    0.000000000000
 C    3.938944866927   -1.350542369387    0.000000000000
 H    4.416764134025   -1.765070144436    0.900445254639
 H    4.416764134025   -1.765070144436   -0.900445254639
 H    4.035603852852   -0.258421463745    0.000000000000
 C    2.307912002399   -3.087304515654    0.000000000000
 H    2.781595665092   -3.521426941905    0.895794210030
 H    2.781595665092   -3.521426941905   -0.895794210030
 C    0.808719036031   -3.329623050010    0.000000000000
 H    0.596495799330   -4.407071294848    0.000000000000
 H    0.339166753696   -2.911659656712   -0.906416394885
 H    0.339166753696   -2.911659656712    0.906416394885
