25

 C   -0.765125807294    3.301049815282    0.000000000000
 H   -0.552905807294    4.378499815282    0.000000000000
 H   -0.295575807294    2.883089815282    0.906420000000
 H   -0.295575807294    2.883089815282   -0.906420000000
 C   -2.264315807294    3.058729815282    0.000000000000
 H   -2.737995807294    3.492849815282   -0.895790000000
 H   -2.737995807294    3.492849815282    0.895790000000
 O   -2.486575807294    1.629899815282    0.000000000000
 C   -3.895345807294    1.321959815282    0.000000000000
 H   -4.373175807294    1.736489815282   -0.900450000000
 H   -4.373175807294    1.736489815282    0.900450000000
 H   -3.992005807294    0.229839815282    0.000000000000
NA   -0.621055807294    0.407089815282    0.000000000000
 O    2.724317804548   -1.785733797596    0.000000000000
 C    4.133085241556   -1.477797392919    0.000000000000
 H    4.610904508654   -1.892325167969    0.900445254639
 H    4.610904508654   -1.892325167969   -0.900445254639
 H    4.229744227481   -0.385676487277    0.000000000000
 C    2.502052377028   -3.214559539186    0.000000000000
 H    2.975736039721   -3.648681965438    0.895794210030
 H    2.975736039721   -3.648681965438   -0.895794210030
 C    1.002859410660   -3.456878073542    0.000000000000
 H    0.790636173959   -4.534326318380    0.000000000000
 H    0.533307128325   -3.038914680244   -0.906416394885
 H    0.533307128325   -3.038914680244    0.906416394885
