25

 C   -0.835324300572    3.347063484159    0.000000000000
 H   -0.623104300572    4.424513484159    0.000000000000
 H   -0.365774300572    2.929103484159    0.906420000000
 H   -0.365774300572    2.929103484159   -0.906420000000
 C   -2.334514300572    3.104743484159    0.000000000000
 H   -2.808194300572    3.538863484159   -0.895790000000
 H   -2.808194300572    3.538863484159    0.895790000000
 O   -2.556774300572    1.675913484159    0.000000000000
 C   -3.965544300572    1.367973484159    0.000000000000
 H   -4.443374300572    1.782503484159   -0.900450000000
 H   -4.443374300572    1.782503484159    0.900450000000
 H   -4.062204300572    0.275853484159    0.000000000000
NA   -0.691254300572    0.453103484159    0.000000000000
 O    2.821387991862   -1.849361309362    0.000000000000
 C    4.230155428870   -1.541424904685    0.000000000000
 H    4.707974695969   -1.955952679735    0.900445254639
 H    4.707974695969   -1.955952679735   -0.900445254639
 H    4.326814414795   -0.449303999043    0.000000000000
 C    2.599122564342   -3.278187050952    0.000000000000
 H    3.072806227035   -3.712309477204    0.895794210030
 H    3.072806227035   -3.712309477204   -0.895794210030
 C    1.099929597974   -3.520505585308    0.000000000000
 H    0.887706361273   -4.597953830146    0.000000000000
 H    0.630377315640   -3.102542192010   -0.906416394885
 H    0.630377315640   -3.102542192010    0.906416394885
