25

 C   -1.045919780404    3.485104490793    0.000000000000
 H   -0.833699780404    4.562554490793    0.000000000000
 H   -0.576369780404    3.067144490793    0.906420000000
 H   -0.576369780404    3.067144490793   -0.906420000000
 C   -2.545109780404    3.242784490793    0.000000000000
 H   -3.018789780404    3.676904490793   -0.895790000000
 H   -3.018789780404    3.676904490793    0.895790000000
 O   -2.767369780404    1.813954490793    0.000000000000
 C   -4.176139780404    1.506014490793    0.000000000000
 H   -4.653969780404    1.920544490793   -0.900450000000
 H   -4.653969780404    1.920544490793    0.900450000000
 H   -4.272799780404    0.413894490793    0.000000000000
NA   -0.901849780404    0.591144490793    0.000000000000
 O    3.112598553805   -2.040243844661    0.000000000000
 C    4.521365990813   -1.732307439984    0.000000000000
 H    4.999185257912   -2.146835215033    0.900445254639
 H    4.999185257912   -2.146835215033   -0.900445254639
 H    4.618024976739   -0.640186534342    0.000000000000
 C    2.890333126286   -3.469069586251    0.000000000000
 H    3.364016788979   -3.903192012502    0.895794210030
 H    3.364016788979   -3.903192012502   -0.895794210030
 C    1.391140159918   -3.711388120607    0.000000000000
 H    1.178916923216   -4.788836365445    0.000000000000
 H    0.921587877583   -3.293424727309   -0.906416394885
 H    0.921587877583   -3.293424727309    0.906416394885
