25

 C   -1.081019027043    3.508111325231    0.000000000000
 H   -0.868799027043    4.585561325231    0.000000000000
 H   -0.611469027043    3.090151325231    0.906420000000
 H   -0.611469027043    3.090151325231   -0.906420000000
 C   -2.580209027043    3.265791325231    0.000000000000
 H   -3.053889027043    3.699911325231   -0.895790000000
 H   -3.053889027043    3.699911325231    0.895790000000
 O   -2.802469027043    1.836961325231    0.000000000000
 C   -4.211239027043    1.529021325231    0.000000000000
 H   -4.689069027043    1.943551325231   -0.900450000000
 H   -4.689069027043    1.943551325231    0.900450000000
 H   -4.307899027043    0.436901325231    0.000000000000
NA   -0.936949027043    0.614151325231    0.000000000000
 O    3.161133647463   -2.072057600544    0.000000000000
 C    4.569901084471   -1.764121195867    0.000000000000
 H    5.047720351569   -2.178648970916    0.900445254639
 H    5.047720351569   -2.178648970916   -0.900445254639
 H    4.666560070396   -0.672000290225    0.000000000000
 C    2.938868219943   -3.500883342134    0.000000000000
 H    3.412551882636   -3.935005768385    0.895794210030
 H    3.412551882636   -3.935005768385   -0.895794210030
 C    1.439675253575   -3.743201876490    0.000000000000
 H    1.227452016874   -4.820650121328    0.000000000000
 H    0.970122971240   -3.325238483192   -0.906416394885
 H    0.970122971240   -3.325238483192    0.906416394885
