25

 C   -1.151217520321    3.554124994109    0.000000000000
 H   -0.938997520321    4.631574994109    0.000000000000
 H   -0.681667520321    3.136164994109    0.906420000000
 H   -0.681667520321    3.136164994109   -0.906420000000
 C   -2.650407520321    3.311804994109    0.000000000000
 H   -3.124087520321    3.745924994109   -0.895790000000
 H   -3.124087520321    3.745924994109    0.895790000000
 O   -2.872667520321    1.882974994109    0.000000000000
 C   -4.281437520321    1.575034994109    0.000000000000
 H   -4.759267520321    1.989564994109   -0.900450000000
 H   -4.759267520321    1.989564994109    0.900450000000
 H   -4.378097520321    0.482914994109    0.000000000000
NA   -1.007147520321    0.660164994109    0.000000000000
 O    3.258203834777   -2.135685112310    0.000000000000
 C    4.666971271785   -1.827748707633    0.000000000000
 H    5.144790538884   -2.242276482682    0.900445254639
 H    5.144790538884   -2.242276482682   -0.900445254639
 H    4.763630257710   -0.735627801991    0.000000000000
 C    3.035938407257   -3.564510853900    0.000000000000
 H    3.509622069950   -3.998633280151    0.895794210030
 H    3.509622069950   -3.998633280151   -0.895794210030
 C    1.536745440889   -3.806829388256    0.000000000000
 H    1.324522204188   -4.884277633094    0.000000000000
 H    1.067193158555   -3.388865994958   -0.906416394885
 H    1.067193158555   -3.388865994958    0.906416394885
