25

 C   -1.221416013599    3.600138662987    0.000000000000
 H   -1.009196013599    4.677588662987    0.000000000000
 H   -0.751866013599    3.182178662987    0.906420000000
 H   -0.751866013599    3.182178662987   -0.906420000000
 C   -2.720606013599    3.357818662987    0.000000000000
 H   -3.194286013599    3.791938662987   -0.895790000000
 H   -3.194286013599    3.791938662987    0.895790000000
 O   -2.942866013599    1.928988662987    0.000000000000
 C   -4.351636013599    1.621048662987    0.000000000000
 H   -4.829466013599    2.035578662987   -0.900450000000
 H   -4.829466013599    2.035578662987    0.900450000000
 H   -4.448296013599    0.528928662987    0.000000000000
NA   -1.077346013599    0.706178662987    0.000000000000
 O    3.355274022091   -2.199312624076    0.000000000000
 C    4.764041459100   -1.891376219399    0.000000000000
 H    5.241860726198   -2.305903994448    0.900445254639
 H    5.241860726198   -2.305903994448   -0.900445254639
 H    4.860700445025   -0.799255313757    0.000000000000
 C    3.133008594572   -3.628138365666    0.000000000000
 H    3.606692257265   -4.062260791918    0.895794210030
 H    3.606692257265   -4.062260791918   -0.895794210030
 C    1.633815628204   -3.870456900022    0.000000000000
 H    1.421592391503   -4.947905144860    0.000000000000
 H    1.164263345869   -3.452493506724   -0.906416394885
 H    1.164263345869   -3.452493506724    0.906416394885
