25

 C   -1.291614506876    3.646152331865    0.000000000000
 H   -1.079394506876    4.723602331865    0.000000000000
 H   -0.822064506876    3.228192331865    0.906420000000
 H   -0.822064506876    3.228192331865   -0.906420000000
 C   -2.790804506876    3.403832331865    0.000000000000
 H   -3.264484506876    3.837952331865   -0.895790000000
 H   -3.264484506876    3.837952331865    0.895790000000
 O   -3.013064506876    1.975002331865    0.000000000000
 C   -4.421834506876    1.667062331865    0.000000000000
 H   -4.899664506876    2.081592331865   -0.900450000000
 H   -4.899664506876    2.081592331865    0.900450000000
 H   -4.518494506876    0.574942331865    0.000000000000
NA   -1.147544506876    0.752192331865    0.000000000000
 O    3.452344209406   -2.262940135842    0.000000000000
 C    4.861111646414   -1.955003731165    0.000000000000
 H    5.338930913513   -2.369531506215    0.900445254639
 H    5.338930913513   -2.369531506215   -0.900445254639
 H    4.957770632339   -0.862882825523    0.000000000000
 C    3.230078781886   -3.691765877432    0.000000000000
 H    3.703762444579   -4.125888303684    0.895794210030
 H    3.703762444579   -4.125888303684   -0.895794210030
 C    1.730885815518   -3.934084411788    0.000000000000
 H    1.518662578817   -5.011532656626    0.000000000000
 H    1.261333533184   -3.516121018490   -0.906416394885
 H    1.261333533184   -3.516121018490    0.906416394885
