25

 C   -1.396912246793    3.715172835181    0.000000000000
 H   -1.184692246793    4.792622835181    0.000000000000
 H   -0.927362246793    3.297212835181    0.906420000000
 H   -0.927362246793    3.297212835181   -0.906420000000
 C   -2.896102246793    3.472852835181    0.000000000000
 H   -3.369782246793    3.906972835181   -0.895790000000
 H   -3.369782246793    3.906972835181    0.895790000000
 O   -3.118362246793    2.044022835181    0.000000000000
 C   -4.527132246793    1.736082835181    0.000000000000
 H   -5.004962246793    2.150612835181   -0.900450000000
 H   -5.004962246793    2.150612835181    0.900450000000
 H   -4.623792246793    0.643962835181    0.000000000000
NA   -1.252842246793    0.821212835181    0.000000000000
 O    3.597949490378   -2.358381403492    0.000000000000
 C    5.006716927386   -2.050444998814    0.000000000000
 H    5.484536194484   -2.464972773864    0.900445254639
 H    5.484536194484   -2.464972773864   -0.900445254639
 H    5.103375913311   -0.958324093172    0.000000000000
 C    3.375684062858   -3.787207145081    0.000000000000
 H    3.849367725551   -4.221329571333    0.895794210030
 H    3.849367725551   -4.221329571333   -0.895794210030
 C    1.876491096490   -4.029525679438    0.000000000000
 H    1.664267859789   -5.106973924275    0.000000000000
 H    1.406938814155   -3.611562286139   -0.906416394885
 H    1.406938814155   -3.611562286139    0.906416394885
