25

 C   -1.432011493431    3.738179669620    0.000000000000
 H   -1.219791493431    4.815629669620    0.000000000000
 H   -0.962461493431    3.320219669620    0.906420000000
 H   -0.962461493431    3.320219669620   -0.906420000000
 C   -2.931201493431    3.495859669620    0.000000000000
 H   -3.404881493431    3.929979669620   -0.895790000000
 H   -3.404881493431    3.929979669620    0.895790000000
 O   -3.153461493431    2.067029669620    0.000000000000
 C   -4.562231493431    1.759089669620    0.000000000000
 H   -5.040061493431    2.173619669620   -0.900450000000
 H   -5.040061493431    2.173619669620    0.900450000000
 H   -4.658891493431    0.666969669620    0.000000000000
NA   -1.287941493431    0.844219669620    0.000000000000
 O    3.646484584035   -2.390195159375    0.000000000000
 C    5.055252021043   -2.082258754697    0.000000000000
 H    5.533071288142   -2.496786529747    0.900445254639
 H    5.533071288142   -2.496786529747   -0.900445254639
 H    5.151911006968   -0.990137849055    0.000000000000
 C    3.424219156515   -3.819020900964    0.000000000000
 H    3.897902819208   -4.253143327216    0.895794210030
 H    3.897902819208   -4.253143327216   -0.895794210030
 C    1.925026190147   -4.061339435321    0.000000000000
 H    1.712802953446   -5.138787680158    0.000000000000
 H    1.455473907812   -3.643376042023   -0.906416394885
 H    1.455473907812   -3.643376042023    0.906416394885
