25

 C   -1.467110740070    3.761186504059    0.000000000000
 H   -1.254890740070    4.838636504059    0.000000000000
 H   -0.997560740070    3.343226504059    0.906420000000
 H   -0.997560740070    3.343226504059   -0.906420000000
 C   -2.966300740070    3.518866504059    0.000000000000
 H   -3.439980740070    3.952986504059   -0.895790000000
 H   -3.439980740070    3.952986504059    0.895790000000
 O   -3.188560740070    2.090036504059    0.000000000000
 C   -4.597330740070    1.782096504059    0.000000000000
 H   -5.075160740070    2.196626504059   -0.900450000000
 H   -5.075160740070    2.196626504059    0.900450000000
 H   -4.693990740070    0.689976504059    0.000000000000
NA   -1.323040740070    0.867226504059    0.000000000000
 O    3.695019677692   -2.422008915258    0.000000000000
 C    5.103787114700   -2.114072510580    0.000000000000
 H    5.581606381799   -2.528600285630    0.900445254639
 H    5.581606381799   -2.528600285630   -0.900445254639
 H    5.200446100625   -1.021951604939    0.000000000000
 C    3.472754250172   -3.850834656848    0.000000000000
 H    3.946437912865   -4.284957083099    0.895794210030
 H    3.946437912865   -4.284957083099   -0.895794210030
 C    1.973561283804   -4.093153191204    0.000000000000
 H    1.761338047103   -5.170601436041    0.000000000000
 H    1.504009001470   -3.675189797906   -0.906416394885
 H    1.504009001470   -3.675189797906    0.906416394885
