25

 C   -1.502209986709    3.784193338498    0.000000000000
 H   -1.289989986709    4.861643338498    0.000000000000
 H   -1.032659986709    3.366233338498    0.906420000000
 H   -1.032659986709    3.366233338498   -0.906420000000
 C   -3.001399986709    3.541873338498    0.000000000000
 H   -3.475079986709    3.975993338498   -0.895790000000
 H   -3.475079986709    3.975993338498    0.895790000000
 O   -3.223659986709    2.113043338498    0.000000000000
 C   -4.632429986709    1.805103338498    0.000000000000
 H   -5.110259986709    2.219633338498   -0.900450000000
 H   -5.110259986709    2.219633338498    0.900450000000
 H   -4.729089986709    0.712983338498    0.000000000000
NA   -1.358139986709    0.890233338498    0.000000000000
 O    3.743554771349   -2.453822671141    0.000000000000
 C    5.152322208357   -2.145886266463    0.000000000000
 H    5.630141475456   -2.560414041513    0.900445254639
 H    5.630141475456   -2.560414041513   -0.900445254639
 H    5.248981194283   -1.053765360822    0.000000000000
 C    3.521289343830   -3.882648412731    0.000000000000
 H    3.994973006522   -4.316770838982    0.895794210030
 H    3.994973006522   -4.316770838982   -0.895794210030
 C    2.022096377462   -4.124966947087    0.000000000000
 H    1.809873140760   -5.202415191925    0.000000000000
 H    1.552544095127   -3.707003553789   -0.906416394885
 H    1.552544095127   -3.707003553789    0.906416394885
