25

 C   -1.747904713181    3.945241179570    0.000000000000
 H   -1.535684713181    5.022691179570    0.000000000000
 H   -1.278354713181    3.527281179570    0.906420000000
 H   -1.278354713181    3.527281179570   -0.906420000000
 C   -3.247094713181    3.702921179570    0.000000000000
 H   -3.720774713181    4.137041179570   -0.895790000000
 H   -3.720774713181    4.137041179570    0.895790000000
 O   -3.469354713181    2.274091179570    0.000000000000
 C   -4.878124713181    1.966151179570    0.000000000000
 H   -5.355954713181    2.380681179570   -0.900450000000
 H   -5.355954713181    2.380681179570    0.900450000000
 H   -4.974784713181    0.874031179570    0.000000000000
NA   -1.603834713181    1.051281179570    0.000000000000
 O    4.083300426950   -2.676518962322    0.000000000000
 C    5.492067863958   -2.368582557645    0.000000000000
 H    5.969887131056   -2.783110332695    0.900445254639
 H    5.969887131056   -2.783110332695   -0.900445254639
 H    5.588726849883   -1.276461652003    0.000000000000
 C    3.861034999430   -4.105344703912    0.000000000000
 H    4.334718662123   -4.539467130164    0.895794210030
 H    4.334718662123   -4.539467130164   -0.895794210030
 C    2.361842033062   -4.347663238268    0.000000000000
 H    2.149618796361   -5.425111483106    0.000000000000
 H    1.892289750727   -3.929699844970   -0.906416394885
 H    1.892289750727   -3.929699844970    0.906416394885
