25

 C   -1.853202453097    4.014261682887    0.000000000000
 H   -1.640982453097    5.091711682887    0.000000000000
 H   -1.383652453097    3.596301682887    0.906420000000
 H   -1.383652453097    3.596301682887   -0.906420000000
 C   -3.352392453097    3.771941682887    0.000000000000
 H   -3.826072453097    4.206061682887   -0.895790000000
 H   -3.826072453097    4.206061682887    0.895790000000
 O   -3.574652453097    2.343111682887    0.000000000000
 C   -4.983422453097    2.035171682887    0.000000000000
 H   -5.461252453097    2.449701682887   -0.900450000000
 H   -5.461252453097    2.449701682887    0.900450000000
 H   -5.080082453097    0.943051682887    0.000000000000
NA   -1.709132453097    1.120301682887    0.000000000000
 O    4.228905707921   -2.771960229972    0.000000000000
 C    5.637673144930   -2.464023825294    0.000000000000
 H    6.115492412028   -2.878551600344    0.900445254639
 H    6.115492412028   -2.878551600344   -0.900445254639
 H    5.734332130855   -1.371902919652    0.000000000000
 C    4.006640280402   -4.200785971561    0.000000000000
 H    4.480323943095   -4.634908397813    0.895794210030
 H    4.480323943095   -4.634908397813   -0.895794210030
 C    2.507447314034   -4.443104505917    0.000000000000
 H    2.295224077333   -5.520552750755    0.000000000000
 H    2.037895031699   -4.025141112619   -0.906416394885
 H    2.037895031699   -4.025141112619    0.906416394885
