25

 C   -1.958500193014    4.083282186203    0.000000000000
 H   -1.746280193014    5.160732186203    0.000000000000
 H   -1.488950193014    3.665322186203    0.906420000000
 H   -1.488950193014    3.665322186203   -0.906420000000
 C   -3.457690193014    3.840962186203    0.000000000000
 H   -3.931370193014    4.275082186203   -0.895790000000
 H   -3.931370193014    4.275082186203    0.895790000000
 O   -3.679950193014    2.412132186203    0.000000000000
 C   -5.088720193014    2.104192186203    0.000000000000
 H   -5.566550193014    2.518722186203   -0.900450000000
 H   -5.566550193014    2.518722186203    0.900450000000
 H   -5.185380193014    1.012072186203    0.000000000000
NA   -1.814430193014    1.189322186203    0.000000000000
 O    4.374510988893   -2.867401497621    0.000000000000
 C    5.783278425901   -2.559465092943    0.000000000000
 H    6.261097693000   -2.973992867993    0.900445254639
 H    6.261097693000   -2.973992867993   -0.900445254639
 H    5.879937411826   -1.467344187302    0.000000000000
 C    4.152245561373   -4.296227239211    0.000000000000
 H    4.625929224066   -4.730349665462    0.895794210030
 H    4.625929224066   -4.730349665462   -0.895794210030
 C    2.653052595005   -4.538545773567    0.000000000000
 H    2.440829358304   -5.615994018404    0.000000000000
 H    2.183500312671   -4.120582380269   -0.906416394885
 H    2.183500312671   -4.120582380269    0.906416394885
