25

 C   -1.993599439652    4.106289020642    0.000000000000
 H   -1.781379439652    5.183739020642    0.000000000000
 H   -1.524049439652    3.688329020642    0.906420000000
 H   -1.524049439652    3.688329020642   -0.906420000000
 C   -3.492789439652    3.863969020642    0.000000000000
 H   -3.966469439652    4.298089020642   -0.895790000000
 H   -3.966469439652    4.298089020642    0.895790000000
 O   -3.715049439652    2.435139020642    0.000000000000
 C   -5.123819439652    2.127199020642    0.000000000000
 H   -5.601649439652    2.541729020642   -0.900450000000
 H   -5.601649439652    2.541729020642    0.900450000000
 H   -5.220479439652    1.035079020642    0.000000000000
NA   -1.849529439652    1.212329020642    0.000000000000
 O    4.423046082550   -2.899215253504    0.000000000000
 C    5.831813519558   -2.591278848826    0.000000000000
 H    6.309632786657   -3.005806623876    0.900445254639
 H    6.309632786657   -3.005806623876   -0.900445254639
 H    5.928472505484   -1.499157943185    0.000000000000
 C    4.200780655031   -4.328040995094    0.000000000000
 H    4.674464317723   -4.762163421345    0.895794210030
 H    4.674464317723   -4.762163421345   -0.895794210030
 C    2.701587688663   -4.570359529450    0.000000000000
 H    2.489364451961   -5.647807774288    0.000000000000
 H    2.232035406328   -4.152396136152   -0.906416394885
 H    2.232035406328   -4.152396136152    0.906416394885
