25

 C   -2.028698686291    4.129295855081    0.000000000000
 H   -1.816478686291    5.206745855081    0.000000000000
 H   -1.559148686291    3.711335855081    0.906420000000
 H   -1.559148686291    3.711335855081   -0.906420000000
 C   -3.527888686291    3.886975855081    0.000000000000
 H   -4.001568686291    4.321095855081   -0.895790000000
 H   -4.001568686291    4.321095855081    0.895790000000
 O   -3.750148686291    2.458145855081    0.000000000000
 C   -5.158918686291    2.150205855081    0.000000000000
 H   -5.636748686291    2.564735855081   -0.900450000000
 H   -5.636748686291    2.564735855081    0.900450000000
 H   -5.255578686291    1.058085855081    0.000000000000
NA   -1.884628686291    1.235335855081    0.000000000000
 O    4.471581176208   -2.931029009387    0.000000000000
 C    5.880348613216   -2.623092604709    0.000000000000
 H    6.358167880314   -3.037620379759    0.900445254639
 H    6.358167880314   -3.037620379759   -0.900445254639
 H    5.977007599141   -1.530971699068    0.000000000000
 C    4.249315748688   -4.359854750977    0.000000000000
 H    4.722999411381   -4.793977177228    0.895794210030
 H    4.722999411381   -4.793977177228   -0.895794210030
 C    2.750122782320   -4.602173285333    0.000000000000
 H    2.537899545619   -5.679621530171    0.000000000000
 H    2.280570499985   -4.184209892035   -0.906416394885
 H    2.280570499985   -4.184209892035    0.906416394885
