25

 C   -2.063797932930    4.152302689520    0.000000000000
 H   -1.851577932930    5.229752689520    0.000000000000
 H   -1.594247932930    3.734342689520    0.906420000000
 H   -1.594247932930    3.734342689520   -0.906420000000
 C   -3.562987932930    3.909982689520    0.000000000000
 H   -4.036667932930    4.344102689520   -0.895790000000
 H   -4.036667932930    4.344102689520    0.895790000000
 O   -3.785247932930    2.481152689520    0.000000000000
 C   -5.194017932930    2.173212689520    0.000000000000
 H   -5.671847932930    2.587742689520   -0.900450000000
 H   -5.671847932930    2.587742689520    0.900450000000
 H   -5.290677932930    1.081092689520    0.000000000000
NA   -1.919727932930    1.258342689520    0.000000000000
 O    4.520116269865   -2.962842765270    0.000000000000
 C    5.928883706873   -2.654906360593    0.000000000000
 H    6.406702973971   -3.069434135642    0.900445254639
 H    6.406702973971   -3.069434135642   -0.900445254639
 H    6.025542692798   -1.562785454951    0.000000000000
 C    4.297850842345   -4.391668506860    0.000000000000
 H    4.771534505038   -4.825790933111    0.895794210030
 H    4.771534505038   -4.825790933111   -0.895794210030
 C    2.798657875977   -4.633987041216    0.000000000000
 H    2.586434639276   -5.711435286054    0.000000000000
 H    2.329105593642   -4.216023647918   -0.906416394885
 H    2.329105593642   -4.216023647918    0.906416394885
