25

 C   -2.204194919485    4.244330027275    0.000000000000
 H   -1.991974919485    5.321780027275    0.000000000000
 H   -1.734644919485    3.826370027275    0.906420000000
 H   -1.734644919485    3.826370027275   -0.906420000000
 C   -3.703384919485    4.002010027275    0.000000000000
 H   -4.177064919485    4.436130027275   -0.895790000000
 H   -4.177064919485    4.436130027275    0.895790000000
 O   -3.925644919485    2.573180027275    0.000000000000
 C   -5.334414919485    2.265240027275    0.000000000000
 H   -5.812244919485    2.679770027275   -0.900450000000
 H   -5.812244919485    2.679770027275    0.900450000000
 H   -5.431074919485    1.173120027275    0.000000000000
NA   -2.060124919485    1.350370027275    0.000000000000
 O    4.714256644494   -3.090097788802    0.000000000000
 C    6.123024081502   -2.782161384125    0.000000000000
 H    6.600843348600   -3.196689159174    0.900445254639
 H    6.600843348600   -3.196689159174   -0.900445254639
 H    6.219683067427   -1.690040478483    0.000000000000
 C    4.491991216974   -4.518923530392    0.000000000000
 H    4.965674879667   -4.953045956644    0.895794210030
 H    4.965674879667   -4.953045956644   -0.895794210030
 C    2.992798250606   -4.761242064748    0.000000000000
 H    2.780575013905   -5.838690309586    0.000000000000
 H    2.523245968271   -4.343278671450   -0.906416394885
 H    2.523245968271   -4.343278671450    0.906416394885
