25

 C   -2.239294166124    4.267336861714    0.000000000000
 H   -2.027074166124    5.344786861714    0.000000000000
 H   -1.769744166124    3.849376861714    0.906420000000
 H   -1.769744166124    3.849376861714   -0.906420000000
 C   -3.738484166124    4.025016861714    0.000000000000
 H   -4.212164166124    4.459136861714   -0.895790000000
 H   -4.212164166124    4.459136861714    0.895790000000
 O   -3.960744166124    2.596186861714    0.000000000000
 C   -5.369514166124    2.288246861714    0.000000000000
 H   -5.847344166124    2.702776861714   -0.900450000000
 H   -5.847344166124    2.702776861714    0.900450000000
 H   -5.466174166124    1.196126861714    0.000000000000
NA   -2.095224166124    1.373376861714    0.000000000000
 O    4.762791738151   -3.121911544685    0.000000000000
 C    6.171559175159   -2.813975140008    0.000000000000
 H    6.649378442258   -3.228502915057    0.900445254639
 H    6.649378442258   -3.228502915057   -0.900445254639
 H    6.268218161084   -1.721854234366    0.000000000000
 C    4.540526310631   -4.550737286275    0.000000000000
 H    5.014209973324   -4.984859712527    0.895794210030
 H    5.014209973324   -4.984859712527   -0.895794210030
 C    3.041333344263   -4.793055820631    0.000000000000
 H    2.829110107562   -5.870504065469    0.000000000000
 H    2.571781061929   -4.375092427333   -0.906416394885
 H    2.571781061929   -4.375092427333    0.906416394885
