25

 C   -2.274393412763    4.290343696153    0.000000000000
 H   -2.062173412763    5.367793696153    0.000000000000
 H   -1.804843412763    3.872383696153    0.906420000000
 H   -1.804843412763    3.872383696153   -0.906420000000
 C   -3.773583412763    4.048023696153    0.000000000000
 H   -4.247263412763    4.482143696153   -0.895790000000
 H   -4.247263412763    4.482143696153    0.895790000000
 O   -3.995843412763    2.619193696153    0.000000000000
 C   -5.404613412763    2.311253696153    0.000000000000
 H   -5.882443412763    2.725783696153   -0.900450000000
 H   -5.882443412763    2.725783696153    0.900450000000
 H   -5.501273412763    1.219133696153    0.000000000000
NA   -2.130323412763    1.396383696153    0.000000000000
 O    4.811326831808   -3.153725300568    0.000000000000
 C    6.220094268816   -2.845788895891    0.000000000000
 H    6.697913535915   -3.260316670941    0.900445254639
 H    6.697913535915   -3.260316670941   -0.900445254639
 H    6.316753254741   -1.753667990249    0.000000000000
 C    4.589061404288   -4.582551042158    0.000000000000
 H    5.062745066981   -5.016673468410    0.895794210030
 H    5.062745066981   -5.016673468410   -0.895794210030
 C    3.089868437920   -4.824869576514    0.000000000000
 H    2.877645201219   -5.902317821352    0.000000000000
 H    2.620316155586   -4.406906183216   -0.906416394885
 H    2.620316155586   -4.406906183216    0.906416394885
