25

 C   -2.309492659402    4.313350530592    0.000000000000
 H   -2.097272659402    5.390800530592    0.000000000000
 H   -1.839942659402    3.895390530592    0.906420000000
 H   -1.839942659402    3.895390530592   -0.906420000000
 C   -3.808682659402    4.071030530592    0.000000000000
 H   -4.282362659402    4.505150530592   -0.895790000000
 H   -4.282362659402    4.505150530592    0.895790000000
 O   -4.030942659402    2.642200530592    0.000000000000
 C   -5.439712659402    2.334260530592    0.000000000000
 H   -5.917542659402    2.748790530592   -0.900450000000
 H   -5.917542659402    2.748790530592    0.900450000000
 H   -5.536372659402    1.242140530592    0.000000000000
NA   -2.165422659402    1.419390530592    0.000000000000
 O    4.859861925465   -3.185539056451    0.000000000000
 C    6.268629362473   -2.877602651774    0.000000000000
 H    6.746448629572   -3.292130426824    0.900445254639
 H    6.746448629572   -3.292130426824   -0.900445254639
 H    6.365288348399   -1.785481746132    0.000000000000
 C    4.637596497946   -4.614364798041    0.000000000000
 H    5.111280160638   -5.048487224293    0.895794210030
 H    5.111280160638   -5.048487224293   -0.895794210030
 C    3.138403531578   -4.856683332397    0.000000000000
 H    2.926180294876   -5.934131577235    0.000000000000
 H    2.668851249243   -4.438719939099   -0.906416394885
 H    2.668851249243   -4.438719939099    0.906416394885
