25

 C   -2.379691152679    4.359364199470    0.000000000000
 H   -2.167471152679    5.436814199470    0.000000000000
 H   -1.910141152679    3.941404199470    0.906420000000
 H   -1.910141152679    3.941404199470   -0.906420000000
 C   -3.878881152679    4.117044199470    0.000000000000
 H   -4.352561152679    4.551164199470   -0.895790000000
 H   -4.352561152679    4.551164199470    0.895790000000
 O   -4.101141152679    2.688214199470    0.000000000000
 C   -5.509911152679    2.380274199470    0.000000000000
 H   -5.987741152679    2.794804199470   -0.900450000000
 H   -5.987741152679    2.794804199470    0.900450000000
 H   -5.606571152679    1.288154199470    0.000000000000
NA   -2.235621152679    1.465404199470    0.000000000000
 O    4.956932112780   -3.249166568218    0.000000000000
 C    6.365699549788   -2.941230163540    0.000000000000
 H    6.843518816886   -3.355757938590    0.900445254639
 H    6.843518816886   -3.355757938590   -0.900445254639
 H    6.462358535713   -1.849109257898    0.000000000000
 C    4.734666685260   -4.677992309807    0.000000000000
 H    5.208350347953   -5.112114736059    0.895794210030
 H    5.208350347953   -5.112114736059   -0.895794210030
 C    3.235473718892   -4.920310844163    0.000000000000
 H    3.023250482191   -5.997759089001    0.000000000000
 H    2.765921436557   -4.502347450865   -0.906416394885
 H    2.765921436557   -4.502347450865    0.906416394885
