25

 C   -2.414790399318    4.382371033909    0.000000000000
 H   -2.202570399318    5.459821033909    0.000000000000
 H   -1.945240399318    3.964411033909    0.906420000000
 H   -1.945240399318    3.964411033909   -0.906420000000
 C   -3.913980399318    4.140051033909    0.000000000000
 H   -4.387660399318    4.574171033909   -0.895790000000
 H   -4.387660399318    4.574171033909    0.895790000000
 O   -4.136240399318    2.711221033909    0.000000000000
 C   -5.545010399318    2.403281033909    0.000000000000
 H   -6.022840399318    2.817811033909   -0.900450000000
 H   -6.022840399318    2.817811033909    0.900450000000
 H   -5.641670399318    1.311161033909    0.000000000000
NA   -2.270720399318    1.488411033909    0.000000000000
 O    5.005467206437   -3.280980324101    0.000000000000
 C    6.414234643445   -2.973043919423    0.000000000000
 H    6.892053910544   -3.387571694473    0.900445254639
 H    6.892053910544   -3.387571694473   -0.900445254639
 H    6.510893629370   -1.880923013781    0.000000000000
 C    4.783201778917   -4.709806065690    0.000000000000
 H    5.256885441610   -5.143928491942    0.895794210030
 H    5.256885441610   -5.143928491942   -0.895794210030
 C    3.284008812549   -4.952124600047    0.000000000000
 H    3.071785575848   -6.029572844884    0.000000000000
 H    2.814456530215   -4.534161206749   -0.906416394885
 H    2.814456530215   -4.534161206749    0.906416394885
