25

 C   -2.695584372429    4.566425709420    0.000000000000
 H   -2.483364372429    5.643875709420    0.000000000000
 H   -2.226034372429    4.148465709420    0.906420000000
 H   -2.226034372429    4.148465709420   -0.906420000000
 C   -4.194774372429    4.324105709420    0.000000000000
 H   -4.668454372429    4.758225709420   -0.895790000000
 H   -4.668454372429    4.758225709420    0.895790000000
 O   -4.417034372429    2.895275709420    0.000000000000
 C   -5.825804372429    2.587335709420    0.000000000000
 H   -6.303634372429    3.001865709420   -0.900450000000
 H   -6.303634372429    3.001865709420    0.900450000000
 H   -5.922464372429    1.495215709420    0.000000000000
NA   -2.551514372429    1.672465709420    0.000000000000
 O    5.393747955695   -3.535490371165    0.000000000000
 C    6.802515392703   -3.227553966488    0.000000000000
 H    7.280334659801   -3.642081741537    0.900445254639
 H    7.280334659801   -3.642081741537   -0.900445254639
 H    6.899174378628   -2.135433060846    0.000000000000
 C    5.171482528175   -4.964316112755    0.000000000000
 H    5.645166190868   -5.398438539007    0.895794210030
 H    5.645166190868   -5.398438539007   -0.895794210030
 C    3.672289561807   -5.206634647111    0.000000000000
 H    3.460066325106   -6.284082891949    0.000000000000
 H    3.202737279472   -4.788671253813   -0.906416394885
 H    3.202737279472   -4.788671253813    0.906416394885
