25

 C   -2.800882112345    4.635446212736    0.000000000000
 H   -2.588662112345    5.712896212736    0.000000000000
 H   -2.331332112345    4.217486212736    0.906420000000
 H   -2.331332112345    4.217486212736   -0.906420000000
 C   -4.300072112345    4.393126212736    0.000000000000
 H   -4.773752112345    4.827246212736   -0.895790000000
 H   -4.773752112345    4.827246212736    0.895790000000
 O   -4.522332112345    2.964296212736    0.000000000000
 C   -5.931102112345    2.656356212736    0.000000000000
 H   -6.408932112345    3.070886212736   -0.900450000000
 H   -6.408932112345    3.070886212736    0.900450000000
 H   -6.027762112345    1.564236212736    0.000000000000
NA   -2.656812112345    1.741486212736    0.000000000000
 O    5.539353236666   -3.630931638814    0.000000000000
 C    6.948120673674   -3.322995234137    0.000000000000
 H    7.425939940773   -3.737523009187    0.900445254639
 H    7.425939940773   -3.737523009187   -0.900445254639
 H    7.044779659600   -2.230874328495    0.000000000000
 C    5.317087809147   -5.059757380404    0.000000000000
 H    5.790771471840   -5.493879806656    0.895794210030
 H    5.790771471840   -5.493879806656   -0.895794210030
 C    3.817894842779   -5.302075914760    0.000000000000
 H    3.605671606078   -6.379524159598    0.000000000000
 H    3.348342560444   -4.884112521462   -0.906416394885
 H    3.348342560444   -4.884112521462    0.906416394885
