25

 C   -2.835981358984    4.658453047175    0.000000000000
 H   -2.623761358984    5.735903047175    0.000000000000
 H   -2.366431358984    4.240493047175    0.906420000000
 H   -2.366431358984    4.240493047175   -0.906420000000
 C   -4.335171358984    4.416133047175    0.000000000000
 H   -4.808851358984    4.850253047175   -0.895790000000
 H   -4.808851358984    4.850253047175    0.895790000000
 O   -4.557431358984    2.987303047175    0.000000000000
 C   -5.966201358984    2.679363047175    0.000000000000
 H   -6.444031358984    3.093893047175   -0.900450000000
 H   -6.444031358984    3.093893047175    0.900450000000
 H   -6.062861358984    1.587243047175    0.000000000000
NA   -2.691911358984    1.764493047175    0.000000000000
 O    5.587888330324   -3.662745394698    0.000000000000
 C    6.996655767332   -3.354808990020    0.000000000000
 H    7.474475034430   -3.769336765070    0.900445254639
 H    7.474475034430   -3.769336765070   -0.900445254639
 H    7.093314753257   -2.262688084378    0.000000000000
 C    5.365622902804   -5.091571136287    0.000000000000
 H    5.839306565497   -5.525693562539    0.895794210030
 H    5.839306565497   -5.525693562539   -0.895794210030
 C    3.866429936436   -5.333889670643    0.000000000000
 H    3.654206699735   -6.411337915481    0.000000000000
 H    3.396877654101   -4.915926277345   -0.906416394885
 H    3.396877654101   -4.915926277345    0.906416394885
