16

 N   -0.785956149032    1.003269075918    0.263770117267
 C    0.584659263377    1.202743753759    0.260138482891
 H    0.906443559715    2.246488684635    0.281557298584
 C   -1.385671418461   -0.249846083635    0.239240126611
 O   -2.603445449993   -0.416788789702    0.240236207385
 N   -0.460365402850   -1.286623693477    0.211583589622
 H   -0.854939110713   -2.225138003326    0.191074716224
 C    0.945364975545   -1.200584981159    0.203135538831
 O    1.633685647973   -2.224202202961    0.175027600278
 C    1.475134156610    0.167803887575    0.231741907965
 C    2.967424050216    0.351662213037    0.226911098139
 H    3.228971679296    1.420090089905    0.249565266286
 H    3.407568363806   -0.106658006385   -0.672197153307
 H    3.418429256925   -0.146824272269    1.098847935052
 H   -1.428262372361    1.787522114092    0.283665535557
 K   -0.791133483143    1.025317029799   -0.735973391309
