16

 N   -0.785833894476    1.002748448363    0.287377478803
 C    0.584781517933    1.202223126204    0.283745844427
 H    0.906565814271    2.245968057080    0.305164660120
 C   -1.385549163905   -0.250366711190    0.262847488147
 O   -2.603323195437   -0.417309417257    0.263843568921
 N   -0.460243148294   -1.287144321032    0.235190951158
 H   -0.854816856157   -2.225658630881    0.214682077760
 C    0.945487230101   -1.201105608714    0.226742900367
 O    1.633807902529   -2.224722830516    0.198634961814
 C    1.475256411166    0.167283260020    0.255349269501
 C    2.967546304772    0.351141585482    0.250518459675
 H    3.229093933852    1.419569462350    0.273172627822
 H    3.407690618362   -0.107178633940   -0.648589791771
 H    3.418551511481   -0.147344899824    1.122455296588
 H   -1.428140117805    1.787001486537    0.307272897093
 K   -0.791528961999    1.027001197632   -0.812340380631
