16

 N   -0.785467130810    1.001186565699    0.358199563412
 C    0.585148281599    1.200661243540    0.354567929036
 H    0.906932577937    2.244406174416    0.375986744729
 C   -1.385182400239   -0.251928593854    0.333669572756
 O   -2.602956431771   -0.418871299921    0.334665653530
 N   -0.459876384628   -1.288706203696    0.306013035767
 H   -0.854450092491   -2.227220513545    0.285504162369
 C    0.945853993767   -1.202667491378    0.297564984976
 O    1.634174666195   -2.226284713180    0.269457046423
 C    1.475623174832    0.165721377356    0.326171354110
 C    2.967913068438    0.349579702818    0.321340544284
 H    3.229460697518    1.418007579686    0.343994712431
 H    3.408057382028   -0.108740516604   -0.577767707162
 H    3.418918275147   -0.148906782488    1.193277381197
 H   -1.427773354139    1.785439603873    0.378094981702
 K   -0.792715398566    1.032053701132   -1.041441348596
