16

 N   -0.785222621699    1.000145310589    0.405414286484
 C    0.585392790710    1.199619988430    0.401782652108
 H    0.907177087048    2.243364919306    0.423201467801
 C   -1.384937891128   -0.252969848964    0.380884295828
 O   -2.602711922660   -0.419912555031    0.381880376602
 N   -0.459631875517   -1.289747458806    0.353227758839
 H   -0.854205583380   -2.228261768655    0.332718885441
 C    0.946098502878   -1.203708746488    0.344779708048
 O    1.634419175306   -2.227325968290    0.316671769495
 C    1.475867683943    0.164680122246    0.373386077182
 C    2.968157577549    0.348538447708    0.368555267356
 H    3.229705206629    1.416966324576    0.391209435503
 H    3.408301891139   -0.109781771714   -0.530552984090
 H    3.419162784258   -0.149948037598    1.240492104269
 H   -1.427528845028    1.784398348763    0.425309704774
 K   -0.793506356277    1.035422036798   -1.194175327239
