16

 N   -0.784244585256    0.995980290150    0.594273178773
 C    0.586370827153    1.195454967991    0.590641544397
 H    0.908155123491    2.239199898867    0.612060360090
 C   -1.383959854685   -0.257134869403    0.569743188117
 O   -2.601733886217   -0.424077575470    0.570739268891
 N   -0.458653839074   -1.293912479245    0.542086651128
 H   -0.853227546937   -2.232426789094    0.521577777730
 C    0.947076539321   -1.207873766927    0.533638600337
 O    1.635397211749   -2.231490988729    0.505530661784
 C    1.476845720386    0.160515101807    0.562244969471
 C    2.969135613992    0.344373427269    0.557414159645
 H    3.230683243072    1.412801304137    0.580068327792
 H    3.409279927582   -0.113946792153   -0.341694091801
 H    3.420140820701   -0.154113058037    1.429350996558
 H   -1.426550808585    1.780233328324    0.614168597063
 K   -0.796670187123    1.048895379464   -1.805111241811
