16

 N   -0.783877821590    0.994418407485    0.665095263381
 C    0.586737590819    1.193893085326    0.661463629005
 H    0.908521887157    2.237638016202    0.682882444698
 C   -1.383593091019   -0.258696752068    0.640565272725
 O   -2.601367122551   -0.425639458135    0.641561353499
 N   -0.458287075408   -1.295474361910    0.612908735736
 H   -0.852860783271   -2.233988671759    0.592399862338
 C    0.947443302987   -1.209435649592    0.604460684945
 O    1.635763975415   -2.233052871394    0.576352746392
 C    1.477212484052    0.158953219142    0.633067054079
 C    2.969502377658    0.342811544604    0.628236244253
 H    3.231050006738    1.411239421472    0.650890412400
 H    3.409646691248   -0.115508674818   -0.270872007193
 H    3.420507584367   -0.155674940702    1.500173081166
 H   -1.426184044919    1.778671445659    0.684990681671
 K   -0.797856623690    1.053947882963   -2.034212209776
