16

 N   -0.783266548813    0.991815269711    0.783132071061
 C    0.587348863596    1.191289947552    0.779500436685
 H    0.909133159934    2.235034878428    0.800919252378
 C   -1.382981818242   -0.261299889842    0.758602080405
 O   -2.600755849774   -0.428242595909    0.759598161179
 N   -0.457675802631   -1.298077499684    0.730945543416
 H   -0.852249510494   -2.236591809533    0.710436670018
 C    0.948054575764   -1.212038787366    0.722497492625
 O    1.636375248192   -2.235656009168    0.694389554072
 C    1.477823756829    0.156350081368    0.751103861759
 C    2.970113650435    0.340208406830    0.746273051933
 H    3.231661279515    1.408636283698    0.768927220080
 H    3.410257964025   -0.118111812592   -0.152835199513
 H    3.421118857144   -0.158278078476    1.618209888846
 H   -1.425572772142    1.776068307885    0.803027489351
 K   -0.799834017969    1.062368722129   -2.416047156384
