16

 N   -0.783022039702    0.990774014601    0.830346794134
 C    0.587593372707    1.190248692442    0.826715159758
 H    0.909377669045    2.233993623318    0.848133975451
 C   -1.382737309131   -0.262341144952    0.805816803478
 O   -2.600511340663   -0.429283851019    0.806812884252
 N   -0.457431293520   -1.299118754794    0.778160266489
 H   -0.852005001383   -2.237633064643    0.757651393091
 C    0.948299084875   -1.213080042476    0.769712215698
 O    1.636619757303   -2.236697264278    0.741604277145
 C    1.478068265940    0.155308826258    0.798318584832
 C    2.970358159546    0.339167151720    0.793487775006
 H    3.231905788626    1.407595028588    0.816141943153
 H    3.410502473136   -0.119153067702   -0.105620476440
 H    3.421363366255   -0.159319333586    1.665424611919
 H   -1.425328263031    1.775027052775    0.850242212424
 K   -0.800624975680    1.065737057796   -2.568781135027
