16

 N   -0.782410766925    0.988170876826    0.948383601814
 C    0.588204645484    1.187645554667    0.944751967438
 H    0.909988941822    2.231390485543    0.966170783131
 C   -1.382126036354   -0.264944282727    0.923853611158
 O   -2.599900067886   -0.431886988794    0.924849691932
 N   -0.456820020743   -1.301721892569    0.896197074169
 H   -0.851393728606   -2.240236202418    0.875688200771
 C    0.948910357652   -1.215683180251    0.887749023378
 O    1.637231030080   -2.239300402053    0.859641084825
 C    1.478679538717    0.152705688483    0.916355392512
 C    2.970969432323    0.336564013945    0.911524582686
 H    3.232517061403    1.404991890813    0.934178750833
 H    3.411113745913   -0.121756205477    0.012416331240
 H    3.421974639032   -0.161922471361    1.783461419599
 H   -1.424716990254    1.772423915000    0.968279020104
 K   -0.802602369959    1.074157896962   -2.950616081635
