16

 N   -0.782288512370    0.987650249271    0.971990963350
 C    0.588326900039    1.187124927112    0.968359328974
 H    0.910111196377    2.230869857988    0.989778144667
 C   -1.382003781799   -0.265464910282    0.947460972694
 O   -2.599777813331   -0.432407616349    0.948457053468
 N   -0.456697766188   -1.302242520124    0.919804435705
 H   -0.851271474051   -2.240756829973    0.899295562307
 C    0.949032612207   -1.216203807806    0.911356384914
 O    1.637353284635   -2.239821029608    0.883248446361
 C    1.478801793272    0.152185060928    0.939962754048
 C    2.971091686878    0.336043386390    0.935131944222
 H    3.232639315958    1.404471263258    0.957786112369
 H    3.411236000468   -0.122276833032    0.036023692776
 H    3.422096893587   -0.162443098916    1.807068781135
 H   -1.424594735699    1.771903287445    0.991886381640
 K   -0.802997848815    1.075842064795   -3.026983070957
