16

 N   -0.782166257814    0.987129621716    0.995598324886
 C    0.588449154595    1.186604299557    0.991966690510
 H    0.910233450933    2.230349230433    1.013385506203
 C   -1.381881527243   -0.265985537837    0.971068334230
 O   -2.599655558775   -0.432928243904    0.972064415004
 N   -0.456575511632   -1.302763147679    0.943411797241
 H   -0.851149219495   -2.241277457528    0.922902923843
 C    0.949154866763   -1.216724435361    0.934963746450
 O    1.637475539191   -2.240341657163    0.906855807897
 C    1.478924047828    0.151664433373    0.963570115584
 C    2.971213941434    0.335522758835    0.958739305758
 H    3.232761570514    1.403950635703    0.981393473905
 H    3.411358255024   -0.122797460587    0.059631054312
 H    3.422219148143   -0.162963726471    1.830676142671
 H   -1.424472481143    1.771382659890    1.015493743176
 K   -0.803393327670    1.077526232628   -3.103350060278
