16

 N   -0.781188221371    0.982964601277    1.184457217175
 C    0.589427191038    1.182439279118    1.180825582799
 H    0.911211487376    2.226184209994    1.202244398492
 C   -1.380903490800   -0.270150558276    1.159927226519
 O   -2.598677522332   -0.437093264343    1.160923307293
 N   -0.455597475189   -1.306928168118    1.132270689530
 H   -0.850171183052   -2.245442477967    1.111761816132
 C    0.950132903206   -1.220889455800    1.123822638739
 O    1.638453575634   -2.244506677602    1.095714700186
 C    1.479902084271    0.147499412934    1.152429007873
 C    2.972191977877    0.331357738396    1.147598198047
 H    3.233739606957    1.399785615264    1.170252366194
 H    3.412336291467   -0.126962481026    0.248489946601
 H    3.423197184586   -0.167128746910    2.019535034960
 H   -1.423494444700    1.767217639451    1.204352635465
 K   -0.806557158516    1.090999575294   -3.714285974851
