16

 N   -0.781065966816    0.982443973722    1.208064578711
 C    0.589549445593    1.181918651563    1.204432944335
 H    0.911333741931    2.225663582439    1.225851760028
 C   -1.380781236245   -0.270671185831    1.183534588055
 O   -2.598555267777   -0.437613891898    1.184530668829
 N   -0.455475220634   -1.307448795673    1.155878051066
 H   -0.850048928497   -2.245963105522    1.135369177668
 C    0.950255157761   -1.221410083355    1.147430000275
 O    1.638575830189   -2.245027305157    1.119322061722
 C    1.480024338826    0.146978785379    1.176036369409
 C    2.972314232432    0.330837110841    1.171205559583
 H    3.233861861512    1.399264987709    1.193859727730
 H    3.412458546022   -0.127483108581    0.272097308137
 H    3.423319439141   -0.167649374465    2.043142396496
 H   -1.423372190145    1.766697011896    1.227959997001
 K   -0.806952637372    1.092683743127   -3.790652964172
