16

 N   -0.780699203149    0.980882091058    1.278886663319
 C    0.589916209260    1.180356768899    1.275255028943
 H    0.911700505598    2.224101699775    1.296673844636
 C   -1.380414472578   -0.272233068495    1.254356672663
 O   -2.598188504110   -0.439175774562    1.255352753437
 N   -0.455108456967   -1.309010678337    1.226700135674
 H   -0.849682164830   -2.247524988186    1.206191262276
 C    0.950621921428   -1.222971966019    1.218252084883
 O    1.638942593856   -2.246589187821    1.190144146330
 C    1.480391102493    0.145416902715    1.246858454017
 C    2.972680996099    0.329275228177    1.242027644191
 H    3.234228625179    1.397703105045    1.264681812338
 H    3.412825309689   -0.129044991245    0.342919392745
 H    3.423686202808   -0.169211257129    2.113964481104
 H   -1.423005426478    1.765135129232    1.298782081609
 K   -0.808139073939    1.097736246626   -4.019753932137
