16

 N   -0.780576948594    0.980361463503    1.302494024855
 C    0.590038463815    1.179836141344    1.298862390479
 H    0.911822760153    2.223581072220    1.320281206172
 C   -1.380292218023   -0.272753696050    1.277964034199
 O   -2.598066249555   -0.439696402117    1.278960114973
 N   -0.454986202412   -1.309531305892    1.250307497210
 H   -0.849559910275   -2.248045615741    1.229798623812
 C    0.950744175983   -1.223492593574    1.241859446419
 O    1.639064848411   -2.247109815376    1.213751507866
 C    1.480513357048    0.144896275160    1.270465815553
 C    2.972803250654    0.328754600622    1.265635005727
 H    3.234350879734    1.397182477490    1.288289173874
 H    3.412947564244   -0.129565618800    0.366526754281
 H    3.423808457363   -0.169731884684    2.137571842640
 H   -1.422883171923    1.764614501677    1.322389443145
 K   -0.808534552795    1.099420414459   -4.096120921459
