16

 N   -0.779843421262    0.977237698173    1.444138194072
 C    0.590771991147    1.176712376014    1.440506559696
 H    0.912556287485    2.220457306890    1.461925375389
 C   -1.379558690691   -0.275877461380    1.419608203416
 O   -2.597332722223   -0.442820167447    1.420604284190
 N   -0.454252675080   -1.312655071222    1.391951666427
 H   -0.848826382943   -2.251169381071    1.371442793029
 C    0.951477703315   -1.226616358904    1.383503615636
 O    1.639798375743   -2.250233580706    1.355395677083
 C    1.481246884380    0.141772509830    1.412109984770
 C    2.973536777986    0.325630835292    1.407279174944
 H    3.235084407066    1.394058712160    1.429933343091
 H    3.413681091576   -0.132689384130    0.508170923498
 H    3.424541984695   -0.172855650014    2.279216011857
 H   -1.422149644591    1.761490736347    1.464033612362
 K   -0.810907425929    1.109525421459   -4.554322857388
