16

 N   -0.779354403040    0.975155187954    1.538567640216
 C    0.591261009369    1.174629865795    1.534936005840
 H    0.913045305707    2.218374796671    1.556354821533
 C   -1.379069672469   -0.277959971599    1.514037649560
 O   -2.596843704001   -0.444902677666    1.515033730334
 N   -0.453763656858   -1.314737581441    1.486381112571
 H   -0.848337364721   -2.253251891290    1.465872239173
 C    0.951966721537   -1.228698869123    1.477933061780
 O    1.640287393965   -2.252316090925    1.449825123227
 C    1.481735902602    0.139689999611    1.506539430914
 C    2.974025796208    0.323548325073    1.501708621088
 H    3.235573425288    1.391976201941    1.524362789235
 H    3.414170109798   -0.134771894349    0.602600369642
 H    3.425031002917   -0.174938160233    2.373645458001
 H   -1.421660626369    1.759408226128    1.558463058506
 K   -0.812489341352    1.116262092791   -4.859790814674
