16

 N   -0.778620875708    0.972031422624    1.680211809433
 C    0.591994536701    1.171506100465    1.676580175057
 H    0.913778833039    2.215251031341    1.697998990750
 C   -1.378336145137   -0.281083736929    1.655681818777
 O   -2.596110176669   -0.448026442996    1.656677899551
 N   -0.453030129526   -1.317861346771    1.628025281788
 H   -0.847603837389   -2.256375656620    1.607516408390
 C    0.952700248869   -1.231822634453    1.619577230997
 O    1.641020921297   -2.255439856255    1.591469292444
 C    1.482469429934    0.136566234281    1.648183600131
 C    2.974759323540    0.320424559743    1.643352790305
 H    3.236306952620    1.388852436611    1.666006958452
 H    3.414903637130   -0.137895659679    0.744244538859
 H    3.425764530249   -0.178061925563    2.515289627218
 H   -1.420927099037    1.756284460798    1.700107227723
 K   -0.814862214486    1.126367099790   -5.317992750604
