16

 N   -0.778498621152    0.971510795070    1.703819170969
 C    0.592116791257    1.170985472911    1.700187536593
 H    0.913901087595    2.214730403787    1.721606352286
 C   -1.378213890581   -0.281604364483    1.679289180313
 O   -2.595987922113   -0.448547070550    1.680285261087
 N   -0.452907874970   -1.318381974325    1.651632643324
 H   -0.847481582833   -2.256896284174    1.631123769926
 C    0.952822503425   -1.232343262007    1.643184592533
 O    1.641143175853   -2.255960483809    1.615076653980
 C    1.482591684490    0.136045606727    1.671790961667
 C    2.974881578096    0.319903932189    1.666960151841
 H    3.236429207176    1.388331809057    1.689614319988
 H    3.415025891686   -0.138416287233    0.767851900395
 H    3.425886784805   -0.178582553117    2.538896988754
 H   -1.420804844481    1.755763833244    1.723714589259
 K   -0.815257693342    1.128051267624   -5.394359739925
