16

 N   -0.778376366597    0.970990167515    1.727426532505
 C    0.592239045812    1.170464845356    1.723794898129
 H    0.914023342150    2.214209776232    1.745213713822
 C   -1.378091636026   -0.282124992038    1.702896541849
 O   -2.595865667558   -0.449067698105    1.703892622623
 N   -0.452785620415   -1.318902601880    1.675240004860
 H   -0.847359328278   -2.257416911729    1.654731131462
 C    0.952944757980   -1.232863889562    1.666791954069
 O    1.641265430408   -2.256481111364    1.638684015516
 C    1.482713939045    0.135524979172    1.695398323203
 C    2.975003832651    0.319383304634    1.690567513377
 H    3.236551461731    1.387811181502    1.713221681524
 H    3.415148146241   -0.138936914788    0.791459261931
 H    3.426009039360   -0.179103180672    2.562504350290
 H   -1.420682589926    1.755243205689    1.747321950795
 K   -0.815653172198    1.129735435457   -5.470726729247
