16

 N   -0.777887348375    0.968907657295    1.821855978649
 C    0.592728064034    1.168382335136    1.818224344273
 H    0.914512360372    2.212127266012    1.839643159966
 C   -1.377602617804   -0.284207502258    1.797325987993
 O   -2.595376649336   -0.451150208325    1.798322068767
 N   -0.452296602193   -1.320985112100    1.769669451004
 H   -0.846870310056   -2.259499421949    1.749160577606
 C    0.953433776202   -1.234946399782    1.761221400213
 O    1.641754448630   -2.258563621584    1.733113461660
 C    1.483202957267    0.133442468952    1.789827769347
 C    2.975492850873    0.317300794414    1.784996959521
 H    3.237040479953    1.385728671282    1.807651127668
 H    3.415637164463   -0.141019425008    0.885888708075
 H    3.426498057582   -0.181185690892    2.656933796434
 H   -1.420193571704    1.753160695469    1.841751396939
 K   -0.817235087621    1.136472106790   -5.776194686533
