16

 N   -0.777642839264    0.967866402185    1.869070701722
 C    0.592972573145    1.167341080026    1.865439067346
 H    0.914756869483    2.211086010902    1.886857883039
 C   -1.377358108693   -0.285248757368    1.844540711066
 O   -2.595132140225   -0.452191463435    1.845536791840
 N   -0.452052093082   -1.322026367210    1.816884174077
 H   -0.846625800945   -2.260540677059    1.796375300679
 C    0.953678285313   -1.235987654892    1.808436123286
 O    1.641998957741   -2.259604876694    1.780328184733
 C    1.483447466378    0.132401213842    1.837042492420
 C    2.975737359984    0.316259539304    1.832211682594
 H    3.237284989064    1.384687416172    1.854865850741
 H    3.415881673574   -0.142060680118    0.933103431148
 H    3.426742566693   -0.182226946002    2.704148519507
 H   -1.419949062593    1.752119440359    1.888966120012
 K   -0.818026045332    1.139840442456   -5.928928665176
