16

 N   -0.777520584709    0.967345774630    1.892678063258
 C    0.593094827700    1.166820452471    1.889046428882
 H    0.914879124038    2.210565383347    1.910465244575
 C   -1.377235854138   -0.285769384923    1.868148072602
 O   -2.595009885670   -0.452712090990    1.869144153376
 N   -0.451929838527   -1.322546994765    1.840491535613
 H   -0.846503546390   -2.261061304614    1.819982662215
 C    0.953800539868   -1.236508282447    1.832043484822
 O    1.642121212296   -2.260125504249    1.803935546269
 C    1.483569720933    0.131880586287    1.860649853956
 C    2.975859614539    0.315738911749    1.855819044130
 H    3.237407243619    1.384166788617    1.878473212277
 H    3.416003928129   -0.142581307673    0.956710792684
 H    3.426864821248   -0.182747573557    2.727755881043
 H   -1.419826808038    1.751598812804    1.912573481548
 K   -0.818421524188    1.141524610289   -6.005295654498
