16

 N   -0.777276075598    0.966304519521    1.939892786330
 C    0.593339336811    1.165779197362    1.936261151954
 H    0.915123633149    2.209524128238    1.957679967647
 C   -1.376991345027   -0.286810640032    1.915362795674
 O   -2.594765376559   -0.453753346099    1.916358876448
 N   -0.451685329416   -1.323588249874    1.887706258685
 H   -0.846259037279   -2.262102559723    1.867197385287
 C    0.954045048979   -1.237549537556    1.879258207894
 O    1.642365721407   -2.261166759358    1.851150269341
 C    1.483814230044    0.130839331178    1.907864577028
 C    2.976104123650    0.314697656640    1.903033767202
 H    3.237651752730    1.383125533508    1.925687935349
 H    3.416248437240   -0.143622562782    1.003925515756
 H    3.427109330359   -0.183788828666    2.774970604115
 H   -1.419582298927    1.750557557695    1.959788204620
 K   -0.819212481899    1.144892945955   -6.158029633141
