16

 N   -0.777153821043    0.965783891966    1.963500147866
 C    0.593461591366    1.165258569807    1.959868513490
 H    0.915245887704    2.209003500683    1.981287329183
 C   -1.376869090472   -0.287331267587    1.938970157210
 O   -2.594643122004   -0.454273973654    1.939966237984
 N   -0.451563074861   -1.324108877429    1.911313620221
 H   -0.846136782724   -2.262623187278    1.890804746823
 C    0.954167303534   -1.238070165111    1.902865569430
 O    1.642487975962   -2.261687386913    1.874757630877
 C    1.483936484599    0.130318703623    1.931471938564
 C    2.976226378205    0.314177029085    1.926641128738
 H    3.237774007285    1.382604905953    1.949295296885
 H    3.416370691795   -0.144143190337    1.027532877292
 H    3.427231584914   -0.184309456221    2.798577965651
 H   -1.419460044372    1.750036930140    1.983395566156
 K   -0.819607960755    1.146577113789   -6.234396622463
