16

 N   -0.776909311932    0.964742636856    2.010714870938
 C    0.593706100477    1.164217314697    2.007083236562
 H    0.915490396815    2.207962245573    2.028502052255
 C   -1.376624581361   -0.288372522697    1.986184880282
 O   -2.594398612893   -0.455315228764    1.987180961056
 N   -0.451318565750   -1.325150132539    1.958528343293
 H   -0.845892273613   -2.263664442388    1.938019469895
 C    0.954411812645   -1.239111420221    1.950080292502
 O    1.642732485073   -2.262728642023    1.921972353949
 C    1.484180993710    0.129277448513    1.978686661636
 C    2.976470887316    0.313135773975    1.973855851810
 H    3.238018516396    1.381563650843    1.996510019957
 H    3.416615200906   -0.145184445447    1.074747600364
 H    3.427476094025   -0.185350711331    2.845792688723
 H   -1.419215535261    1.748995675030    2.030610289228
 K   -0.820398918466    1.149945449455   -6.387130601106
