16

 N   -0.776787057377    0.964222009301    2.034322232474
 C    0.593828355032    1.163696687142    2.030690598098
 H    0.915612651370    2.207441618018    2.052109413791
 C   -1.376502326806   -0.288893150252    2.009792241818
 O   -2.594276358338   -0.455835856319    2.010788322592
 N   -0.451196311195   -1.325670760094    1.982135704829
 H   -0.845770019058   -2.264185069943    1.961626831431
 C    0.954534067200   -1.239632047776    1.973687654038
 O    1.642854739628   -2.263249269578    1.945579715485
 C    1.484303248265    0.128756820958    2.002294023172
 C    2.976593141871    0.312615146420    1.997463213346
 H    3.238140770951    1.381043023288    2.020117381493
 H    3.416737455461   -0.145705073002    1.098354961900
 H    3.427598348580   -0.185871338886    2.869400050259
 H   -1.419093280706    1.748475047475    2.054217650764
 K   -0.820794397322    1.151629617288   -6.463497590427
