16

 N   -0.776664802821    0.963701381746    2.057929594010
 C    0.593950609588    1.163176059587    2.054297959634
 H    0.915734905926    2.206920990463    2.075716775327
 C   -1.376380072250   -0.289413777807    2.033399603354
 O   -2.594154103782   -0.456356483874    2.034395684128
 N   -0.451074056639   -1.326191387649    2.005743066365
 H   -0.845647764502   -2.264705697498    1.985234192967
 C    0.954656321756   -1.240152675331    1.997295015574
 O    1.642976994184   -2.263769897133    1.969187077021
 C    1.484425502821    0.128236193403    2.025901384708
 C    2.976715396427    0.312094518865    2.021070574882
 H    3.238263025507    1.380522395733    2.043724743029
 H    3.416859710017   -0.146225700557    1.121962323436
 H    3.427720603136   -0.186391966441    2.893007411795
 H   -1.418971026150    1.747954419920    2.077825012300
 K   -0.821189876178    1.153313785121   -6.539864579749
