16

 N   -0.776420293710    0.962660126636    2.105144317082
 C    0.594195118699    1.162134804477    2.101512682706
 H    0.915979415037    2.205879735353    2.122931498399
 C   -1.376135563139   -0.290455032917    2.080614326426
 O   -2.593909594671   -0.457397738984    2.081610407200
 N   -0.450829547528   -1.327232642759    2.052957789437
 H   -0.845403255391   -2.265746952608    2.032448916039
 C    0.954900830867   -1.241193930441    2.044509738646
 O    1.643221503295   -2.264811152243    2.016401800093
 C    1.484670011932    0.127194938293    2.073116107780
 C    2.976959905538    0.311053263755    2.068285297954
 H    3.238507534618    1.379481140623    2.090939466101
 H    3.417104219128   -0.147266955667    1.169177046508
 H    3.427965112247   -0.187433221551    2.940222134867
 H   -1.418726517039    1.746913164810    2.125039735372
 K   -0.821980833889    1.156682120788   -6.692598558392
