16

 N   -0.776298039155    0.962139499081    2.128751678619
 C    0.594317373254    1.161614176922    2.125120044243
 H    0.916101669592    2.205359107798    2.146538859936
 C   -1.376013308584   -0.290975660472    2.104221687963
 O   -2.593787340116   -0.457918366539    2.105217768737
 N   -0.450707292973   -1.327753270314    2.076565150974
 H   -0.845281000836   -2.266267580163    2.056056277576
 C    0.955023085422   -1.241714557996    2.068117100183
 O    1.643343757850   -2.265331779798    2.040009161630
 C    1.484792266487    0.126674310738    2.096723469317
 C    2.977082160093    0.310532636200    2.091892659491
 H    3.238629789173    1.378960513068    2.114546827638
 H    3.417226473683   -0.147787583222    1.192784408045
 H    3.428087366802   -0.187953849106    2.963829496404
 H   -1.418604262484    1.746392537255    2.148647096909
 K   -0.822376312745    1.158366288621   -6.768965547714
