16

 N   -0.775809020933    0.960056988862    2.223181124763
 C    0.594806391476    1.159531666703    2.219549490387
 H    0.916590687814    2.203276597579    2.240968306080
 C   -1.375524290362   -0.293058170691    2.198651134107
 O   -2.593298321894   -0.460000876758    2.199647214881
 N   -0.450218274751   -1.329835780533    2.170994597118
 H   -0.844791982614   -2.268350090382    2.150485723720
 C    0.955512103644   -1.243797068215    2.162546546327
 O    1.643832776072   -2.267414290017    2.134438607774
 C    1.485281284709    0.124591800519    2.191152915461
 C    2.977571178315    0.308450125981    2.186322105635
 H    3.239118807395    1.376878002849    2.208976273782
 H    3.417715491905   -0.149870093441    1.287213854189
 H    3.428576385024   -0.190036359325    3.058258942548
 H   -1.418115244262    1.744310027036    2.243076543053
 K   -0.823958228168    1.165102959954   -7.074433505000
