16

 N   -0.775564511823    0.959015733752    2.270395847835
 C    0.595050900586    1.158490411593    2.266764213459
 H    0.916835196924    2.202235342469    2.288183029152
 C   -1.375279781252   -0.294099425801    2.245865857179
 O   -2.593053812784   -0.461042131868    2.246861937953
 N   -0.449973765641   -1.330877035643    2.218209320190
 H   -0.844547473504   -2.269391345492    2.197700446792
 C    0.955756612754   -1.244838323325    2.209761269399
 O    1.644077285182   -2.268455545127    2.181653330846
 C    1.485525793819    0.123550545409    2.238367638533
 C    2.977815687425    0.307408870871    2.233536828707
 H    3.239363316505    1.375836747739    2.256190996854
 H    3.417960001015   -0.150911348551    1.334428577261
 H    3.428820894134   -0.191077614435    3.105473665620
 H   -1.417870735152    1.743268771926    2.290291266125
 K   -0.824749185879    1.168471295620   -7.227167483643
