16

 N   -0.775442257267    0.958495106197    2.294003209371
 C    0.595173155142    1.157969784038    2.290371574995
 H    0.916957451480    2.201714714914    2.311790390688
 C   -1.375157526696   -0.294620053356    2.269473218715
 O   -2.592931558228   -0.461562759423    2.270469299489
 N   -0.449851511085   -1.331397663198    2.241816681726
 H   -0.844425218948   -2.269911973047    2.221307808328
 C    0.955878867310   -1.245358950880    2.233368630935
 O    1.644199539738   -2.268976172682    2.205260692382
 C    1.485648048375    0.123029917854    2.261975000069
 C    2.977937941981    0.306888243316    2.257144190243
 H    3.239485571061    1.375316120184    2.279798358390
 H    3.418082255571   -0.151431976106    1.358035938797
 H    3.428943148690   -0.191598241990    3.129081027156
 H   -1.417748480596    1.742748144371    2.313898627661
 K   -0.825144664735    1.170155463453   -7.303534472965
