16

 N   -0.775320002712    0.957974478642    2.317610570907
 C    0.595295409697    1.157449156483    2.313978936531
 H    0.917079706035    2.201194087359    2.335397752224
 C   -1.375035272141   -0.295140680911    2.293080580251
 O   -2.592809303673   -0.462083386978    2.294076661025
 N   -0.449729256530   -1.331918290753    2.265424043262
 H   -0.844302964393   -2.270432600602    2.244915169864
 C    0.956001121865   -1.245879578435    2.256975992471
 O    1.644321794293   -2.269496800237    2.228868053918
 C    1.485770302930    0.122509290299    2.285582361605
 C    2.978060196536    0.306367615761    2.280751551779
 H    3.239607825616    1.374795492629    2.303405719926
 H    3.418204510126   -0.151952603661    1.381643300333
 H    3.429065403245   -0.192118869545    3.152688388692
 H   -1.417626226041    1.742227516816    2.337505989197
 K   -0.825540143591    1.171839631286   -7.379901462286
