16

 N   -0.775075493601    0.956933223532    2.364825293979
 C    0.595539918808    1.156407901373    2.361193659603
 H    0.917324215146    2.200152832249    2.382612475296
 C   -1.374790763030   -0.296181936021    2.340295303323
 O   -2.592564794562   -0.463124642088    2.341291384097
 N   -0.449484747419   -1.332959545863    2.312638766334
 H   -0.844058455282   -2.271473855712    2.292129892936
 C    0.956245630976   -1.246920833545    2.304190715543
 O    1.644566303404   -2.270538055347    2.276082776990
 C    1.486014812041    0.121468035189    2.332797084677
 C    2.978304705647    0.305326360651    2.327966274851
 H    3.239852334727    1.373754237519    2.350620442998
 H    3.418449019237   -0.152993858771    1.428858023405
 H    3.429309912356   -0.193160124655    3.199903111764
 H   -1.417381716930    1.741186261706    2.384720712269
 K   -0.826331101302    1.175207966953   -7.532635440930
