26

 C    0.356274255562    2.647515660448    0.000000000000
 H    0.400694255562    3.746505660448    0.000000000000
 H    0.897844255562    2.318195660448    0.903170000000
 H    0.897844255562    2.318195660448   -0.903170000000
 C   -1.095225744438    2.212115660448    0.000000000000
 H   -1.631905744438    2.556575660448   -0.895740000000
 H   -1.631905744438    2.556575660448    0.895740000000
 O   -1.140825744438    0.722905660448    0.000000000000
 C   -2.549545744438    0.269435660448    0.000000000000
 H   -3.048575744438    0.649885660448   -0.900810000000
 H   -3.048575744438    0.649885660448    0.900810000000
 H   -2.537635744438   -0.826914339552    0.000000000000
LI    0.103104255562   -0.065334339552    1.342980000000
LI    0.103104255562   -0.065334339552   -1.342980000000
 O    1.116733275919   -0.707639725712    0.000000000000
 C    2.525457438586   -0.254175458524    0.000000000000
 H    3.024478217801   -0.634621573589    0.900803956387
 H    3.024478217801   -0.634621573589   -0.900803956387
 H    2.513546035662    0.842179837391    0.000000000000
 C    1.071134823519   -2.196851795647    0.000000000000
 H    1.607820376616   -2.541311311235    0.895739053976
 H    1.607820376616   -2.541311311235   -0.895739053976
 C   -0.380360416021   -2.632246354286    0.000000000000
 H   -0.424780861397   -3.731239000364    0.000000000000
 H   -0.921928222156   -2.302930914021   -0.903162818412
 H   -0.921928222156   -2.302930914021    0.903162818412
