26

 C    0.318457517612    2.671478958641    0.000000000000
 H    0.362877517612    3.770468958641    0.000000000000
 H    0.860027517612    2.342158958641    0.903170000000
 H    0.860027517612    2.342158958641   -0.903170000000
 C   -1.133042482388    2.236078958641    0.000000000000
 H   -1.669722482388    2.580538958641   -0.895740000000
 H   -1.669722482388    2.580538958641    0.895740000000
 O   -1.178642482388    0.746868958641    0.000000000000
 C   -2.587362482388    0.293398958641    0.000000000000
 H   -3.086392482388    0.673848958641   -0.900810000000
 H   -3.086392482388    0.673848958641    0.900810000000
 H   -2.575452482388   -0.802951041359    0.000000000000
LI    0.065287517612   -0.041371041359    1.342980000000
LI    0.065287517612   -0.041371041359   -1.342980000000
 O    1.163385622999   -0.737201876366    0.000000000000
 C    2.572109785667   -0.283737609178    0.000000000000
 H    3.071130564882   -0.664183724243    0.900803956387
 H    3.071130564882   -0.664183724243   -0.900803956387
 H    2.560198382742    0.812617686737    0.000000000000
 C    1.117787170599   -2.226413946300    0.000000000000
 H    1.654472723696   -2.570873461889    0.895739053976
 H    1.654472723696   -2.570873461889   -0.895739053976
 C   -0.333708068941   -2.661808504940    0.000000000000
 H   -0.378128514317   -3.760801151017    0.000000000000
 H   -0.875275875076   -2.332493064675   -0.903162818412
 H   -0.875275875076   -2.332493064675    0.903162818412
