26

 C    0.167190565814    2.767332151413    0.000000000000
 H    0.211610565814    3.866322151413    0.000000000000
 H    0.708760565814    2.438012151413    0.903170000000
 H    0.708760565814    2.438012151413   -0.903170000000
 C   -1.284309434186    2.331932151413    0.000000000000
 H   -1.820989434186    2.676392151413   -0.895740000000
 H   -1.820989434186    2.676392151413    0.895740000000
 O   -1.329909434186    0.842722151413    0.000000000000
 C   -2.738629434186    0.389252151413    0.000000000000
 H   -3.237659434186    0.769702151413   -0.900810000000
 H   -3.237659434186    0.769702151413    0.900810000000
 H   -2.726719434186   -0.707097848587    0.000000000000
LI   -0.085979434186    0.054482151413    1.342980000000
LI   -0.085979434186    0.054482151413   -1.342980000000
 O    1.349995011320   -0.855450478980    0.000000000000
 C    2.758719173988   -0.401986211792    0.000000000000
 H    3.257739953203   -0.782432326858    0.900803956387
 H    3.257739953203   -0.782432326858   -0.900803956387
 H    2.746807771064    0.694369084123    0.000000000000
 C    1.304396558920   -2.344662548915    0.000000000000
 H    1.841082112018   -2.689122064503    0.895739053976
 H    1.841082112018   -2.689122064503   -0.895739053976
 C   -0.147098680620   -2.780057107554    0.000000000000
 H   -0.191519125995   -3.879049753632    0.000000000000
 H   -0.688666486755   -2.450741667289   -0.903162818412
 H   -0.688666486755   -2.450741667289    0.903162818412
