26

 C    0.129373827865    2.791295449606    0.000000000000
 H    0.173793827865    3.890285449606    0.000000000000
 H    0.670943827865    2.461975449606    0.903170000000
 H    0.670943827865    2.461975449606   -0.903170000000
 C   -1.322126172135    2.355895449606    0.000000000000
 H   -1.858806172135    2.700355449606   -0.895740000000
 H   -1.858806172135    2.700355449606    0.895740000000
 O   -1.367726172135    0.866685449606    0.000000000000
 C   -2.776446172135    0.413215449606    0.000000000000
 H   -3.275476172135    0.793665449606   -0.900810000000
 H   -3.275476172135    0.793665449606    0.900810000000
 H   -2.764536172135   -0.683134550394    0.000000000000
LI   -0.123796172135    0.078445449606    1.342980000000
LI   -0.123796172135    0.078445449606   -1.342980000000
 O    1.396647358400   -0.885012629634    0.000000000000
 C    2.805371521068   -0.431548362446    0.000000000000
 H    3.304392300283   -0.811994477511    0.900803956387
 H    3.304392300283   -0.811994477511   -0.900803956387
 H    2.793460118144    0.664806933469    0.000000000000
 C    1.351048906000   -2.374224699568    0.000000000000
 H    1.887734459098   -2.718684215157    0.895739053976
 H    1.887734459098   -2.718684215157   -0.895739053976
 C   -0.100446333540   -2.809619258208    0.000000000000
 H   -0.144866778915   -3.908611904285    0.000000000000
 H   -0.642014139674   -2.480303817943   -0.903162818412
 H   -0.642014139674   -2.480303817943    0.903162818412
