26

 C   -0.021893123933    2.887148642378    0.000000000000
 H    0.022526876067    3.986138642378    0.000000000000
 H    0.519676876067    2.557828642378    0.903170000000
 H    0.519676876067    2.557828642378   -0.903170000000
 C   -1.473393123933    2.451748642378    0.000000000000
 H   -2.010073123933    2.796208642378   -0.895740000000
 H   -2.010073123933    2.796208642378    0.895740000000
 O   -1.518993123933    0.962538642378    0.000000000000
 C   -2.927713123933    0.509068642378    0.000000000000
 H   -3.426743123933    0.889518642378   -0.900810000000
 H   -3.426743123933    0.889518642378    0.900810000000
 H   -2.915803123933   -0.587281357622    0.000000000000
LI   -0.275063123933    0.174298642378    1.342980000000
LI   -0.275063123933    0.174298642378   -1.342980000000
 O    1.583256746722   -1.003261232248    0.000000000000
 C    2.991980909389   -0.549796965060    0.000000000000
 H    3.491001688604   -0.930243080126    0.900803956387
 H    3.491001688604   -0.930243080126   -0.900803956387
 H    2.980069506465    0.546558330854    0.000000000000
 C    1.537658294322   -2.492473302183    0.000000000000
 H    2.074343847419   -2.836932817771    0.895739053976
 H    2.074343847419   -2.836932817771   -0.895739053976
 C    0.086163054782   -2.927867860822    0.000000000000
 H    0.041742609406   -4.026860506900    0.000000000000
 H   -0.455404751353   -2.598552420557   -0.903162818412
 H   -0.455404751353   -2.598552420557    0.903162818412
