26

 C   -0.135343337781    2.959038536958    0.000000000000
 H   -0.090923337781    4.058028536958    0.000000000000
 H    0.406226662219    2.629718536958    0.903170000000
 H    0.406226662219    2.629718536958   -0.903170000000
 C   -1.586843337781    2.523638536958    0.000000000000
 H   -2.123523337781    2.868098536958   -0.895740000000
 H   -2.123523337781    2.868098536958    0.895740000000
 O   -1.632443337781    1.034428536958    0.000000000000
 C   -3.041163337781    0.580958536958    0.000000000000
 H   -3.540193337781    0.961408536958   -0.900810000000
 H   -3.540193337781    0.961408536958    0.900810000000
 H   -3.029253337781   -0.515391463042    0.000000000000
LI   -0.388513337781    0.246188536958    1.342980000000
LI   -0.388513337781    0.246188536958   -1.342980000000
 O    1.723213787963   -1.091947684209    0.000000000000
 C    3.131937950630   -0.638483417021    0.000000000000
 H    3.630958729845   -1.018929532087    0.900803956387
 H    3.630958729845   -1.018929532087   -0.900803956387
 H    3.120026547706    0.457871878894    0.000000000000
 C    1.677615335563   -2.581159754144    0.000000000000
 H    2.214300888660   -2.925619269732    0.895739053976
 H    2.214300888660   -2.925619269732   -0.895739053976
 C    0.226120096023   -3.016554312783    0.000000000000
 H    0.181699650647   -4.115546958861    0.000000000000
 H   -0.315447710112   -2.687238872518   -0.903162818412
 H   -0.315447710112   -2.687238872518    0.903162818412
