26

 C   -0.248793551629    3.030928431537    0.000000000000
 H   -0.204373551629    4.129918431537    0.000000000000
 H    0.292776448371    2.701608431537    0.903170000000
 H    0.292776448371    2.701608431537   -0.903170000000
 C   -1.700293551629    2.595528431537    0.000000000000
 H   -2.236973551629    2.939988431537   -0.895740000000
 H   -2.236973551629    2.939988431537    0.895740000000
 O   -1.745893551629    1.106318431537    0.000000000000
 C   -3.154613551629    0.652848431537    0.000000000000
 H   -3.653643551629    1.033298431537   -0.900810000000
 H   -3.653643551629    1.033298431537    0.900810000000
 H   -3.142703551629   -0.443501568463    0.000000000000
LI   -0.501963551629    0.318078431537    1.342980000000
LI   -0.501963551629    0.318078431537   -1.342980000000
 O    1.863170829203   -1.180634136170    0.000000000000
 C    3.271894991871   -0.727169868982    0.000000000000
 H    3.770915771086   -1.107615984048    0.900803956387
 H    3.770915771086   -1.107615984048   -0.900803956387
 H    3.259983588947    0.369185426933    0.000000000000
 C    1.817572376804   -2.669846206105    0.000000000000
 H    2.354257929901   -3.014305721693    0.895739053976
 H    2.354257929901   -3.014305721693   -0.895739053976
 C    0.366077137264   -3.105240764744    0.000000000000
 H    0.321656691888   -4.204233410822    0.000000000000
 H   -0.175490668871   -2.775925324479   -0.903162818412
 H   -0.175490668871   -2.775925324479    0.903162818412
