26

 C   -0.400060503427    3.126781624309    0.000000000000
 H   -0.355640503427    4.225771624309    0.000000000000
 H    0.141509496573    2.797461624309    0.903170000000
 H    0.141509496573    2.797461624309   -0.903170000000
 C   -1.851560503427    2.691381624309    0.000000000000
 H   -2.388240503427    3.035841624309   -0.895740000000
 H   -2.388240503427    3.035841624309    0.895740000000
 O   -1.897160503427    1.202171624309    0.000000000000
 C   -3.305880503427    0.748701624309    0.000000000000
 H   -3.804910503427    1.129151624309   -0.900810000000
 H   -3.804910503427    1.129151624309    0.900810000000
 H   -3.293970503427   -0.347648375691    0.000000000000
LI   -0.653230503427    0.413931624309    1.342980000000
LI   -0.653230503427    0.413931624309   -1.342980000000
 O    2.049780217525   -1.298882738785    0.000000000000
 C    3.458504380192   -0.845418471597    0.000000000000
 H    3.957525159407   -1.225864586662    0.900803956387
 H    3.957525159407   -1.225864586662   -0.900803956387
 H    3.446592977268    0.250936824318    0.000000000000
 C    2.004181765125   -2.788094808719    0.000000000000
 H    2.540867318222   -3.132554324308    0.895739053976
 H    2.540867318222   -3.132554324308   -0.895739053976
 C    0.552686525585   -3.223489367359    0.000000000000
 H    0.508266080209   -4.322482013436    0.000000000000
 H    0.011118719450   -2.894173927094   -0.903162818412
 H    0.011118719450   -2.894173927094    0.903162818412
