26

 C   -0.551327455225    3.222634817081    0.000000000000
 H   -0.506907455225    4.321624817081    0.000000000000
 H   -0.009757455225    2.893314817081    0.903170000000
 H   -0.009757455225    2.893314817081   -0.903170000000
 C   -2.002827455225    2.787234817081    0.000000000000
 H   -2.539507455225    3.131694817081   -0.895740000000
 H   -2.539507455225    3.131694817081    0.895740000000
 O   -2.048427455225    1.298024817081    0.000000000000
 C   -3.457147455225    0.844554817081    0.000000000000
 H   -3.956177455225    1.225004817081   -0.900810000000
 H   -3.956177455225    1.225004817081    0.900810000000
 H   -3.445237455225   -0.251795182919    0.000000000000
LI   -0.804497455225    0.509784817081    1.342980000000
LI   -0.804497455225    0.509784817081   -1.342980000000
 O    2.236389605846   -1.417131341399    0.000000000000
 C    3.645113768514   -0.963667074211    0.000000000000
 H    4.144134547729   -1.344113189277    0.900803956387
 H    4.144134547729   -1.344113189277   -0.900803956387
 H    3.633202365590    0.132688221703    0.000000000000
 C    2.190791153446   -2.906343411334    0.000000000000
 H    2.727476706543   -3.250802926922    0.895739053976
 H    2.727476706543   -3.250802926922   -0.895739053976
 C    0.739295913906   -3.341737969973    0.000000000000
 H    0.694875468531   -4.440730616051    0.000000000000
 H    0.197728107771   -3.012422529708   -0.903162818412
 H    0.197728107771   -3.012422529708    0.903162818412
