26

 C   -0.702594407023    3.318488009853    0.000000000000
 H   -0.658174407023    4.417478009853    0.000000000000
 H   -0.161024407023    2.989168009853    0.903170000000
 H   -0.161024407023    2.989168009853   -0.903170000000
 C   -2.154094407023    2.883088009853    0.000000000000
 H   -2.690774407023    3.227548009853   -0.895740000000
 H   -2.690774407023    3.227548009853    0.895740000000
 O   -2.199694407023    1.393878009853    0.000000000000
 C   -3.608414407023    0.940408009853    0.000000000000
 H   -4.107444407023    1.320858009853   -0.900810000000
 H   -4.107444407023    1.320858009853    0.900810000000
 H   -3.596504407023   -0.155941990147    0.000000000000
LI   -0.955764407023    0.605638009853    1.342980000000
LI   -0.955764407023    0.605638009853   -1.342980000000
 O    2.422998994167   -1.535379944014    0.000000000000
 C    3.831723156835   -1.081915676826    0.000000000000
 H    4.330743936050   -1.462361791891    0.900803956387
 H    4.330743936050   -1.462361791891   -0.900803956387
 H    3.819811753911    0.014439619089    0.000000000000
 C    2.377400541767   -3.024592013948    0.000000000000
 H    2.914086094865   -3.369051529537    0.895739053976
 H    2.914086094865   -3.369051529537   -0.895739053976
 C    0.925905302227   -3.459986572588    0.000000000000
 H    0.881484856852   -4.558979218665    0.000000000000
 H    0.384337496092   -3.130671132323   -0.903162818412
 H    0.384337496092   -3.130671132323    0.903162818412
