26

 C   -0.853861358820    3.414341202625    0.000000000000
 H   -0.809441358820    4.513331202625    0.000000000000
 H   -0.312291358820    3.085021202625    0.903170000000
 H   -0.312291358820    3.085021202625   -0.903170000000
 C   -2.305361358820    2.978941202625    0.000000000000
 H   -2.842041358820    3.323401202625   -0.895740000000
 H   -2.842041358820    3.323401202625    0.895740000000
 O   -2.350961358820    1.489731202625    0.000000000000
 C   -3.759681358820    1.036261202625    0.000000000000
 H   -4.258711358820    1.416711202625   -0.900810000000
 H   -4.258711358820    1.416711202625    0.900810000000
 H   -3.747771358820   -0.060088797375    0.000000000000
LI   -1.107031358820    0.701491202625    1.342980000000
LI   -1.107031358820    0.701491202625   -1.342980000000
 O    2.609608382488   -1.653628546628    0.000000000000
 C    4.018332545156   -1.200164279440    0.000000000000
 H    4.517353324371   -1.580610394506    0.900803956387
 H    4.517353324371   -1.580610394506   -0.900803956387
 H    4.006421142232   -0.103808983526    0.000000000000
 C    2.564009930088   -3.142840616563    0.000000000000
 H    3.100695483186   -3.487300132152    0.895739053976
 H    3.100695483186   -3.487300132152   -0.895739053976
 C    1.112514690548   -3.578235175202    0.000000000000
 H    1.068094245173   -4.677227821280    0.000000000000
 H    0.570946884414   -3.248919734937   -0.903162818412
 H    0.570946884414   -3.248919734937    0.903162818412
