26

 C   -0.967311572669    3.486231097204    0.000000000000
 H   -0.922891572669    4.585221097204    0.000000000000
 H   -0.425741572669    3.156911097204    0.903170000000
 H   -0.425741572669    3.156911097204   -0.903170000000
 C   -2.418811572669    3.050831097204    0.000000000000
 H   -2.955491572669    3.395291097204   -0.895740000000
 H   -2.955491572669    3.395291097204    0.895740000000
 O   -2.464411572669    1.561621097204    0.000000000000
 C   -3.873131572669    1.108151097204    0.000000000000
 H   -4.372161572669    1.488601097204   -0.900810000000
 H   -4.372161572669    1.488601097204    0.900810000000
 H   -3.861221572669    0.011801097204    0.000000000000
LI   -1.220481572669    0.773381097204    1.342980000000
LI   -1.220481572669    0.773381097204   -1.342980000000
 O    2.749565423729   -1.742314998589    0.000000000000
 C    4.158289586397   -1.288850731401    0.000000000000
 H    4.657310365612   -1.669296846467    0.900803956387
 H    4.657310365612   -1.669296846467   -0.900803956387
 H    4.146378183473   -0.192495435487    0.000000000000
 C    2.703966971329   -3.231527068524    0.000000000000
 H    3.240652524427   -3.575986584112    0.895739053976
 H    3.240652524427   -3.575986584112   -0.895739053976
 C    1.252471731789   -3.666921627163    0.000000000000
 H    1.208051286414   -4.765914273241    0.000000000000
 H    0.710903925655   -3.337606186898   -0.903162818412
 H    0.710903925655   -3.337606186898    0.903162818412
