26

 C   -1.005128310618    3.510194395397    0.000000000000
 H   -0.960708310618    4.609184395397    0.000000000000
 H   -0.463558310618    3.180874395397    0.903170000000
 H   -0.463558310618    3.180874395397   -0.903170000000
 C   -2.456628310618    3.074794395397    0.000000000000
 H   -2.993308310618    3.419254395397   -0.895740000000
 H   -2.993308310618    3.419254395397    0.895740000000
 O   -2.502228310618    1.585584395397    0.000000000000
 C   -3.910948310618    1.132114395397    0.000000000000
 H   -4.409978310618    1.512564395397   -0.900810000000
 H   -4.409978310618    1.512564395397    0.900810000000
 H   -3.899038310618    0.035764395397    0.000000000000
LI   -1.258298310618    0.797344395397    1.342980000000
LI   -1.258298310618    0.797344395397   -1.342980000000
 O    2.796217770810   -1.771877149243    0.000000000000
 C    4.204941933477   -1.318412882055    0.000000000000
 H    4.703962712692   -1.698858997120    0.900803956387
 H    4.703962712692   -1.698858997120   -0.900803956387
 H    4.193030530553   -0.222057586140    0.000000000000
 C    2.750619318410   -3.261089219178    0.000000000000
 H    3.287304871507   -3.605548734766    0.895739053976
 H    3.287304871507   -3.605548734766   -0.895739053976
 C    1.299124078870   -3.696483777817    0.000000000000
 H    1.254703633494   -4.795476423895    0.000000000000
 H    0.757556272735   -3.367168337552   -0.903162818412
 H    0.757556272735   -3.367168337552    0.903162818412
