26

 C   -1.042945048567    3.534157693590    0.000000000000
 H   -0.998525048567    4.633147693590    0.000000000000
 H   -0.501375048567    3.204837693590    0.903170000000
 H   -0.501375048567    3.204837693590   -0.903170000000
 C   -2.494445048567    3.098757693590    0.000000000000
 H   -3.031125048567    3.443217693590   -0.895740000000
 H   -3.031125048567    3.443217693590    0.895740000000
 O   -2.540045048567    1.609547693590    0.000000000000
 C   -3.948765048567    1.156077693590    0.000000000000
 H   -4.447795048567    1.536527693590   -0.900810000000
 H   -4.447795048567    1.536527693590    0.900810000000
 H   -3.936855048567    0.059727693590    0.000000000000
LI   -1.296115048567    0.821307693590    1.342980000000
LI   -1.296115048567    0.821307693590   -1.342980000000
 O    2.842870117890   -1.801439299897    0.000000000000
 C    4.251594280558   -1.347975032709    0.000000000000
 H    4.750615059773   -1.728421147774    0.900803956387
 H    4.750615059773   -1.728421147774   -0.900803956387
 H    4.239682877634   -0.251619736794    0.000000000000
 C    2.797271665490   -3.290651369831    0.000000000000
 H    3.333957218587   -3.635110885420    0.895739053976
 H    3.333957218587   -3.635110885420   -0.895739053976
 C    1.345776425950   -3.726045928471    0.000000000000
 H    1.301355980575   -4.825038574548    0.000000000000
 H    0.804208619815   -3.396730488206   -0.903162818412
 H    0.804208619815   -3.396730488206    0.903162818412
