26

 C   -1.156395262416    3.606047588170    0.000000000000
 H   -1.111975262416    4.705037588170    0.000000000000
 H   -0.614825262416    3.276727588170    0.903170000000
 H   -0.614825262416    3.276727588170   -0.903170000000
 C   -2.607895262416    3.170647588170    0.000000000000
 H   -3.144575262416    3.515107588170   -0.895740000000
 H   -3.144575262416    3.515107588170    0.895740000000
 O   -2.653495262416    1.681437588170    0.000000000000
 C   -4.062215262416    1.227967588170    0.000000000000
 H   -4.561245262416    1.608417588170   -0.900810000000
 H   -4.561245262416    1.608417588170    0.900810000000
 H   -4.050305262416    0.131617588170    0.000000000000
LI   -1.409565262416    0.893197588170    1.342980000000
LI   -1.409565262416    0.893197588170   -1.342980000000
 O    2.982827159131   -1.890125751858    0.000000000000
 C    4.391551321799   -1.436661484670    0.000000000000
 H    4.890572101014   -1.817107599735    0.900803956387
 H    4.890572101014   -1.817107599735   -0.900803956387
 H    4.379639918875   -0.340306188755    0.000000000000
 C    2.937228706731   -3.379337821792    0.000000000000
 H    3.473914259828   -3.723797337381    0.895739053976
 H    3.473914259828   -3.723797337381   -0.895739053976
 C    1.485733467191   -3.814732380432    0.000000000000
 H    1.441313021815   -4.913725026509    0.000000000000
 H    0.944165661056   -3.485416940167   -0.903162818412
 H    0.944165661056   -3.485416940167    0.903162818412
