26

 C   -1.458929166011    3.797753973714    0.000000000000
 H   -1.414509166011    4.896743973714    0.000000000000
 H   -0.917359166011    3.468433973714    0.903170000000
 H   -0.917359166011    3.468433973714   -0.903170000000
 C   -2.910429166011    3.362353973714    0.000000000000
 H   -3.447109166011    3.706813973714   -0.895740000000
 H   -3.447109166011    3.706813973714    0.895740000000
 O   -2.956029166011    1.873143973714    0.000000000000
 C   -4.364749166011    1.419673973714    0.000000000000
 H   -4.863779166011    1.800123973714   -0.900810000000
 H   -4.863779166011    1.800123973714    0.900810000000
 H   -4.352839166011    0.323323973714    0.000000000000
LI   -1.712099166011    1.084903973714    1.342980000000
LI   -1.712099166011    1.084903973714   -1.342980000000
 O    3.356045935773   -2.126622957087    0.000000000000
 C    4.764770098441   -1.673158689899    0.000000000000
 H    5.263790877656   -2.053604804964    0.900803956387
 H    5.263790877656   -2.053604804964   -0.900803956387
 H    4.752858695517   -0.576803393984    0.000000000000
 C    3.310447483373   -3.615835027021    0.000000000000
 H    3.847133036471   -3.960294542610    0.895739053976
 H    3.847133036471   -3.960294542610   -0.895739053976
 C    1.858952243833   -4.051229585661    0.000000000000
 H    1.814531798458   -5.150222231738    0.000000000000
 H    1.317384437699   -3.721914145396   -0.903162818412
 H    1.317384437699   -3.721914145396    0.903162818412
