26

 C   -1.534562641910    3.845680570100    0.000000000000
 H   -1.490142641910    4.944670570100    0.000000000000
 H   -0.992992641910    3.516360570100    0.903170000000
 H   -0.992992641910    3.516360570100   -0.903170000000
 C   -2.986062641910    3.410280570100    0.000000000000
 H   -3.522742641910    3.754740570100   -0.895740000000
 H   -3.522742641910    3.754740570100    0.895740000000
 O   -3.031662641910    1.921070570100    0.000000000000
 C   -4.440382641910    1.467600570100    0.000000000000
 H   -4.939412641910    1.848050570100   -0.900810000000
 H   -4.939412641910    1.848050570100    0.900810000000
 H   -4.428472641910    0.371250570100    0.000000000000
LI   -1.787732641910    1.132830570100    1.342980000000
LI   -1.787732641910    1.132830570100   -1.342980000000
 O    3.449350629934   -2.185747258394    0.000000000000
 C    4.858074792602   -1.732282991206    0.000000000000
 H    5.357095571817   -2.112729106271    0.900803956387
 H    5.357095571817   -2.112729106271   -0.900803956387
 H    4.846163389678   -0.635927695291    0.000000000000
 C    3.403752177534   -3.674959328329    0.000000000000
 H    3.940437730631   -4.019418843917    0.895739053976
 H    3.940437730631   -4.019418843917   -0.895739053976
 C    1.952256937994   -4.110353886968    0.000000000000
 H    1.907836492619   -5.209346533046    0.000000000000
 H    1.410689131859   -3.781038446703   -0.903162818412
 H    1.410689131859   -3.781038446703    0.903162818412
