26

 C   -1.950546759354    4.109276850223    0.000000000000
 H   -1.906126759354    5.208266850223    0.000000000000
 H   -1.408976759354    3.779956850223    0.903170000000
 H   -1.408976759354    3.779956850223   -0.903170000000
 C   -3.402046759354    3.673876850223    0.000000000000
 H   -3.938726759354    4.018336850223   -0.895740000000
 H   -3.938726759354    4.018336850223    0.895740000000
 O   -3.447646759354    2.184666850223    0.000000000000
 C   -4.856366759354    1.731196850223    0.000000000000
 H   -5.355396759354    2.111646850223   -0.900810000000
 H   -5.355396759354    2.111646850223    0.900810000000
 H   -4.844456759354    0.634846850223    0.000000000000
LI   -2.203716759354    1.396426850223    1.342980000000
LI   -2.203716759354    1.396426850223   -1.342980000000
 O    3.962526447817   -2.510930915584    0.000000000000
 C    5.371250610485   -2.057466648396    0.000000000000
 H    5.870271389700   -2.437912763461    0.900803956387
 H    5.870271389700   -2.437912763461   -0.900803956387
 H    5.359339207561   -0.961111352481    0.000000000000
 C    3.916927995417   -4.000142985519    0.000000000000
 H    4.453613548515   -4.344602501107    0.895739053976
 H    4.453613548515   -4.344602501107   -0.895739053976
 C    2.465432755877   -4.435537544158    0.000000000000
 H    2.421012310502   -5.534530190236    0.000000000000
 H    1.923864949743   -4.106222103893   -0.903162818412
 H    1.923864949743   -4.106222103893    0.903162818412
