26

 C   -1.988363497303    4.133240148416    0.000000000000
 H   -1.943943497303    5.232230148416    0.000000000000
 H   -1.446793497303    3.803920148416    0.903170000000
 H   -1.446793497303    3.803920148416   -0.903170000000
 C   -3.439863497303    3.697840148416    0.000000000000
 H   -3.976543497303    4.042300148416   -0.895740000000
 H   -3.976543497303    4.042300148416    0.895740000000
 O   -3.485463497303    2.208630148416    0.000000000000
 C   -4.894183497303    1.755160148416    0.000000000000
 H   -5.393213497303    2.135610148416   -0.900810000000
 H   -5.393213497303    2.135610148416    0.900810000000
 H   -4.882273497303    0.658810148416    0.000000000000
LI   -2.241533497303    1.420390148416    1.342980000000
LI   -2.241533497303    1.420390148416   -1.342980000000
 O    4.009178794898   -2.540493066238    0.000000000000
 C    5.417902957565   -2.087028799050    0.000000000000
 H    5.916923736780   -2.467474914115    0.900803956387
 H    5.916923736780   -2.467474914115   -0.900803956387
 H    5.405991554641   -0.990673503135    0.000000000000
 C    3.963580342498   -4.029705136172    0.000000000000
 H    4.500265895595   -4.374164651761    0.895739053976
 H    4.500265895595   -4.374164651761   -0.895739053976
 C    2.512085102958   -4.465099694812    0.000000000000
 H    2.467664657582   -5.564092340889    0.000000000000
 H    1.970517296823   -4.135784254547   -0.903162818412
 H    1.970517296823   -4.135784254547    0.903162818412
