26

 C   -2.026180235253    4.157203446609    0.000000000000
 H   -1.981760235253    5.256193446609    0.000000000000
 H   -1.484610235253    3.827883446609    0.903170000000
 H   -1.484610235253    3.827883446609   -0.903170000000
 C   -3.477680235253    3.721803446609    0.000000000000
 H   -4.014360235253    4.066263446609   -0.895740000000
 H   -4.014360235253    4.066263446609    0.895740000000
 O   -3.523280235253    2.232593446609    0.000000000000
 C   -4.932000235253    1.779123446609    0.000000000000
 H   -5.431030235253    2.159573446609   -0.900810000000
 H   -5.431030235253    2.159573446609    0.900810000000
 H   -4.920090235253    0.682773446609    0.000000000000
LI   -2.279350235253    1.444353446609    1.342980000000
LI   -2.279350235253    1.444353446609   -1.342980000000
 O    4.055831141978   -2.570055216891    0.000000000000
 C    5.464555304646   -2.116590949703    0.000000000000
 H    5.963576083861   -2.497037064769    0.900803956387
 H    5.963576083861   -2.497037064769   -0.900803956387
 H    5.452643901722   -1.020235653788    0.000000000000
 C    4.010232689578   -4.059267286826    0.000000000000
 H    4.546918242675   -4.403726802414    0.895739053976
 H    4.546918242675   -4.403726802414   -0.895739053976
 C    2.558737450038   -4.494661845465    0.000000000000
 H    2.514317004663   -5.593654491543    0.000000000000
 H    2.017169643903   -4.165346405200   -0.903162818412
 H    2.017169643903   -4.165346405200    0.903162818412
