26

 C   -2.139630449101    4.229093341188    0.000000000000
 H   -2.095210449101    5.328083341188    0.000000000000
 H   -1.598060449101    3.899773341188    0.903170000000
 H   -1.598060449101    3.899773341188   -0.903170000000
 C   -3.591130449101    3.793693341188    0.000000000000
 H   -4.127810449101    4.138153341188   -0.895740000000
 H   -4.127810449101    4.138153341188    0.895740000000
 O   -3.636730449101    2.304483341188    0.000000000000
 C   -5.045450449101    1.851013341188    0.000000000000
 H   -5.544480449101    2.231463341188   -0.900810000000
 H   -5.544480449101    2.231463341188    0.900810000000
 H   -5.033540449101    0.754663341188    0.000000000000
LI   -2.392800449101    1.516243341188    1.342980000000
LI   -2.392800449101    1.516243341188   -1.342980000000
 O    4.195788183219   -2.658741668852    0.000000000000
 C    5.604512345887   -2.205277401664    0.000000000000
 H    6.103533125102   -2.585723516730    0.900803956387
 H    6.103533125102   -2.585723516730   -0.900803956387
 H    5.592600942963   -1.108922105749    0.000000000000
 C    4.150189730819   -4.147953738787    0.000000000000
 H    4.686875283916   -4.492413254375    0.895739053976
 H    4.686875283916   -4.492413254375   -0.895739053976
 C    2.698694491279   -4.583348297426    0.000000000000
 H    2.654274045904   -5.682340943504    0.000000000000
 H    2.157126685144   -4.254032857161   -0.903162818412
 H    2.157126685144   -4.254032857161    0.903162818412
