26

 C   -2.177447187050    4.253056639381    0.000000000000
 H   -2.133027187050    5.352046639381    0.000000000000
 H   -1.635877187050    3.923736639381    0.903170000000
 H   -1.635877187050    3.923736639381   -0.903170000000
 C   -3.628947187050    3.817656639381    0.000000000000
 H   -4.165627187050    4.162116639381   -0.895740000000
 H   -4.165627187050    4.162116639381    0.895740000000
 O   -3.674547187050    2.328446639381    0.000000000000
 C   -5.083267187050    1.874976639381    0.000000000000
 H   -5.582297187050    2.255426639381   -0.900810000000
 H   -5.582297187050    2.255426639381    0.900810000000
 H   -5.071357187050    0.778626639381    0.000000000000
LI   -2.430617187050    1.540206639381    1.342980000000
LI   -2.430617187050    1.540206639381   -1.342980000000
 O    4.242440530299   -2.688303819506    0.000000000000
 C    5.651164692967   -2.234839552318    0.000000000000
 H    6.150185472182   -2.615285667383    0.900803956387
 H    6.150185472182   -2.615285667383   -0.900803956387
 H    5.639253290043   -1.138484256403    0.000000000000
 C    4.196842077899   -4.177515889440    0.000000000000
 H    4.733527630997   -4.521975405029    0.895739053976
 H    4.733527630997   -4.521975405029   -0.895739053976
 C    2.745346838359   -4.612910448080    0.000000000000
 H    2.700926392984   -5.711903094157    0.000000000000
 H    2.203779032224   -4.283595007815   -0.903162818412
 H    2.203779032224   -4.283595007815    0.903162818412
