26

 C   -2.215263925000    4.277019937575    0.000000000000
 H   -2.170843925000    5.376009937575    0.000000000000
 H   -1.673693925000    3.947699937575    0.903170000000
 H   -1.673693925000    3.947699937575   -0.903170000000
 C   -3.666763925000    3.841619937575    0.000000000000
 H   -4.203443925000    4.186079937575   -0.895740000000
 H   -4.203443925000    4.186079937575    0.895740000000
 O   -3.712363925000    2.352409937575    0.000000000000
 C   -5.121083925000    1.898939937575    0.000000000000
 H   -5.620113925000    2.279389937575   -0.900810000000
 H   -5.620113925000    2.279389937575    0.900810000000
 H   -5.109173925000    0.802589937575    0.000000000000
LI   -2.468433925000    1.564169937575    1.342980000000
LI   -2.468433925000    1.564169937575   -1.342980000000
 O    4.289092877380   -2.717865970160    0.000000000000
 C    5.697817040047   -2.264401702971    0.000000000000
 H    6.196837819262   -2.644847818037    0.900803956387
 H    6.196837819262   -2.644847818037   -0.900803956387
 H    5.685905637123   -1.168046407057    0.000000000000
 C    4.243494424980   -4.207078040094    0.000000000000
 H    4.780179978077   -4.551537555683    0.895739053976
 H    4.780179978077   -4.551537555683   -0.895739053976
 C    2.791999185440   -4.642472598733    0.000000000000
 H    2.747578740064   -5.741465244811    0.000000000000
 H    2.250431379305   -4.313157158468   -0.903162818412
 H    2.250431379305   -4.313157158468    0.903162818412
