26

 C   -2.253080662949    4.300983235768    0.000000000000
 H   -2.208660662949    5.399973235768    0.000000000000
 H   -1.711510662949    3.971663235768    0.903170000000
 H   -1.711510662949    3.971663235768   -0.903170000000
 C   -3.704580662949    3.865583235768    0.000000000000
 H   -4.241260662949    4.210043235768   -0.895740000000
 H   -4.241260662949    4.210043235768    0.895740000000
 O   -3.750180662949    2.376373235768    0.000000000000
 C   -5.158900662949    1.922903235768    0.000000000000
 H   -5.657930662949    2.303353235768   -0.900810000000
 H   -5.657930662949    2.303353235768    0.900810000000
 H   -5.146990662949    0.826553235768    0.000000000000
LI   -2.506250662949    1.588133235768    1.342980000000
LI   -2.506250662949    1.588133235768   -1.342980000000
 O    4.335745224460   -2.747428120813    0.000000000000
 C    5.744469387127   -2.293963853625    0.000000000000
 H    6.243490166343   -2.674409968690    0.900803956387
 H    6.243490166343   -2.674409968690   -0.900803956387
 H    5.732557984203   -1.197608557710    0.000000000000
 C    4.290146772060   -4.236640190748    0.000000000000
 H    4.826832325157   -4.581099706336    0.895739053976
 H    4.826832325157   -4.581099706336   -0.895739053976
 C    2.838651532520   -4.672034749387    0.000000000000
 H    2.794231087144   -5.771027395465    0.000000000000
 H    2.297083726385   -4.342719309122   -0.903162818412
 H    2.297083726385   -4.342719309122    0.903162818412
