26

 C   -2.290897400899    4.324946533961    0.000000000000
 H   -2.246477400899    5.423936533961    0.000000000000
 H   -1.749327400899    3.995626533961    0.903170000000
 H   -1.749327400899    3.995626533961   -0.903170000000
 C   -3.742397400899    3.889546533961    0.000000000000
 H   -4.279077400899    4.234006533961   -0.895740000000
 H   -4.279077400899    4.234006533961    0.895740000000
 O   -3.787997400899    2.400336533961    0.000000000000
 C   -5.196717400899    1.946866533961    0.000000000000
 H   -5.695747400899    2.327316533961   -0.900810000000
 H   -5.695747400899    2.327316533961    0.900810000000
 H   -5.184807400899    0.850516533961    0.000000000000
LI   -2.544067400899    1.612096533961    1.342980000000
LI   -2.544067400899    1.612096533961   -1.342980000000
 O    4.382397571540   -2.776990271467    0.000000000000
 C    5.791121734208   -2.323526004279    0.000000000000
 H    6.290142513423   -2.703972119344    0.900803956387
 H    6.290142513423   -2.703972119344   -0.900803956387
 H    5.779210331284   -1.227170708364    0.000000000000
 C    4.336799119140   -4.266202341401    0.000000000000
 H    4.873484672238   -4.610661856990    0.895739053976
 H    4.873484672238   -4.610661856990   -0.895739053976
 C    2.885303879600   -4.701596900041    0.000000000000
 H    2.840883434225   -5.800589546118    0.000000000000
 H    2.343736073465   -4.372281459776   -0.903162818412
 H    2.343736073465   -4.372281459776    0.903162818412
