26

 C   -2.328714138848    4.348909832154    0.000000000000
 H   -2.284294138848    5.447899832154    0.000000000000
 H   -1.787144138848    4.019589832154    0.903170000000
 H   -1.787144138848    4.019589832154   -0.903170000000
 C   -3.780214138848    3.913509832154    0.000000000000
 H   -4.316894138848    4.257969832154   -0.895740000000
 H   -4.316894138848    4.257969832154    0.895740000000
 O   -3.825814138848    2.424299832154    0.000000000000
 C   -5.234534138848    1.970829832154    0.000000000000
 H   -5.733564138848    2.351279832154   -0.900810000000
 H   -5.733564138848    2.351279832154    0.900810000000
 H   -5.222624138848    0.874479832154    0.000000000000
LI   -2.581884138848    1.636059832154    1.342980000000
LI   -2.581884138848    1.636059832154   -1.342980000000
 O    4.429049918620   -2.806552422120    0.000000000000
 C    5.837774081288   -2.353088154932    0.000000000000
 H    6.336794860503   -2.733534269998    0.900803956387
 H    6.336794860503   -2.733534269998   -0.900803956387
 H    5.825862678364   -1.256732859018    0.000000000000
 C    4.383451466220   -4.295764492055    0.000000000000
 H    4.920137019318   -4.640224007644    0.895739053976
 H    4.920137019318   -4.640224007644   -0.895739053976
 C    2.931956226681   -4.731159050694    0.000000000000
 H    2.887535781305   -5.830151696772    0.000000000000
 H    2.390388420546   -4.401843610429   -0.903162818412
 H    2.390388420546   -4.401843610429    0.903162818412
