26

 C   -2.366530876798    4.372873130347    0.000000000000
 H   -2.322110876798    5.471863130347    0.000000000000
 H   -1.824960876798    4.043553130347    0.903170000000
 H   -1.824960876798    4.043553130347   -0.903170000000
 C   -3.818030876798    3.937473130347    0.000000000000
 H   -4.354710876798    4.281933130347   -0.895740000000
 H   -4.354710876798    4.281933130347    0.895740000000
 O   -3.863630876798    2.448263130347    0.000000000000
 C   -5.272350876798    1.994793130347    0.000000000000
 H   -5.771380876798    2.375243130347   -0.900810000000
 H   -5.771380876798    2.375243130347    0.900810000000
 H   -5.260440876798    0.898443130347    0.000000000000
LI   -2.619700876798    1.660023130347    1.342980000000
LI   -2.619700876798    1.660023130347   -1.342980000000
 O    4.475702265701   -2.836114572774    0.000000000000
 C    5.884426428368   -2.382650305586    0.000000000000
 H    6.383447207584   -2.763096420651    0.900803956387
 H    6.383447207584   -2.763096420651   -0.900803956387
 H    5.872515025444   -1.286295009671    0.000000000000
 C    4.430103813301   -4.325326642709    0.000000000000
 H    4.966789366398   -4.669786158297    0.895739053976
 H    4.966789366398   -4.669786158297   -0.895739053976
 C    2.978608573761   -4.760721201348    0.000000000000
 H    2.934188128385   -5.859713847426    0.000000000000
 H    2.437040767626   -4.431405761083   -0.903162818412
 H    2.437040767626   -4.431405761083    0.903162818412
