26

 C   -2.442164352696    4.420799726733    0.000000000000
 H   -2.397744352696    5.519789726733    0.000000000000
 H   -1.900594352696    4.091479726733    0.903170000000
 H   -1.900594352696    4.091479726733   -0.903170000000
 C   -3.893664352696    3.985399726733    0.000000000000
 H   -4.430344352696    4.329859726733   -0.895740000000
 H   -4.430344352696    4.329859726733    0.895740000000
 O   -3.939264352696    2.496189726733    0.000000000000
 C   -5.347984352696    2.042719726733    0.000000000000
 H   -5.847014352696    2.423169726733   -0.900810000000
 H   -5.847014352696    2.423169726733    0.900810000000
 H   -5.336074352696    0.946369726733    0.000000000000
LI   -2.695334352696    1.707949726733    1.342980000000
LI   -2.695334352696    1.707949726733   -1.342980000000
 O    4.569006959861   -2.895238874081    0.000000000000
 C    5.977731122529   -2.441774606893    0.000000000000
 H    6.476751901744   -2.822220721959    0.900803956387
 H    6.476751901744   -2.822220721959   -0.900803956387
 H    5.965819719605   -1.345419310979    0.000000000000
 C    4.523408507461   -4.384450944016    0.000000000000
 H    5.060094060559   -4.728910459604    0.895739053976
 H    5.060094060559   -4.728910459604   -0.895739053976
 C    3.071913267921   -4.819845502655    0.000000000000
 H    3.027492822546   -5.918838148733    0.000000000000
 H    2.530345461787   -4.490530062390   -0.903162818412
 H    2.530345461787   -4.490530062390    0.903162818412
