26

 C   -2.858148470140    4.684396006856    0.000000000000
 H   -2.813728470140    5.783386006856    0.000000000000
 H   -2.316578470140    4.355076006856    0.903170000000
 H   -2.316578470140    4.355076006856   -0.903170000000
 C   -4.309648470140    4.248996006856    0.000000000000
 H   -4.846328470140    4.593456006856   -0.895740000000
 H   -4.846328470140    4.593456006856    0.895740000000
 O   -4.355248470140    2.759786006856    0.000000000000
 C   -5.763968470140    2.306316006856    0.000000000000
 H   -6.262998470140    2.686766006856   -0.900810000000
 H   -6.262998470140    2.686766006856    0.900810000000
 H   -5.752058470140    1.209966006856    0.000000000000
LI   -3.111318470140    1.971546006856    1.342980000000
LI   -3.111318470140    1.971546006856   -1.342980000000
 O    5.082182777745   -3.220422531271    0.000000000000
 C    6.490906940412   -2.766958264083    0.000000000000
 H    6.989927719628   -3.147404379149    0.900803956387
 H    6.989927719628   -3.147404379149   -0.900803956387
 H    6.478995537488   -1.670602968169    0.000000000000
 C    5.036584325345   -4.709634601206    0.000000000000
 H    5.573269878442   -5.054094116794    0.895739053976
 H    5.573269878442   -5.054094116794   -0.895739053976
 C    3.585089085805   -5.145029159845    0.000000000000
 H    3.540668640429   -6.244021805923    0.000000000000
 H    3.043521279670   -4.815713719580   -0.903162818412
 H    3.043521279670   -4.815713719580    0.903162818412
