26

 C   -2.895965208090    4.708359305049    0.000000000000
 H   -2.851545208090    5.807349305049    0.000000000000
 H   -2.354395208090    4.379039305049    0.903170000000
 H   -2.354395208090    4.379039305049   -0.903170000000
 C   -4.347465208090    4.272959305049    0.000000000000
 H   -4.884145208090    4.617419305049   -0.895740000000
 H   -4.884145208090    4.617419305049    0.895740000000
 O   -4.393065208090    2.783749305049    0.000000000000
 C   -5.801785208090    2.330279305049    0.000000000000
 H   -6.300815208090    2.710729305049   -0.900810000000
 H   -6.300815208090    2.710729305049    0.900810000000
 H   -5.789875208090    1.233929305049    0.000000000000
LI   -3.149135208090    1.995509305049    1.342980000000
LI   -3.149135208090    1.995509305049   -1.342980000000
 O    5.128835124825   -3.249984681925    0.000000000000
 C    6.537559287493   -2.796520414737    0.000000000000
 H    7.036580066708   -3.176966529802    0.900803956387
 H    7.036580066708   -3.176966529802   -0.900803956387
 H    6.525647884569   -1.700165118822    0.000000000000
 C    5.083236672425   -4.739196751860    0.000000000000
 H    5.619922225523   -5.083656267448    0.895739053976
 H    5.619922225523   -5.083656267448   -0.895739053976
 C    3.631741432885   -5.174591310499    0.000000000000
 H    3.587320987510   -6.273583956577    0.000000000000
 H    3.090173626750   -4.845275870234   -0.903162818412
 H    3.090173626750   -4.845275870234    0.903162818412
