26

 C   -2.933781946039    4.732322603242    0.000000000000
 H   -2.889361946039    5.831312603242    0.000000000000
 H   -2.392211946039    4.403002603242    0.903170000000
 H   -2.392211946039    4.403002603242   -0.903170000000
 C   -4.385281946039    4.296922603242    0.000000000000
 H   -4.921961946039    4.641382603242   -0.895740000000
 H   -4.921961946039    4.641382603242    0.895740000000
 O   -4.430881946039    2.807712603242    0.000000000000
 C   -5.839601946039    2.354242603242    0.000000000000
 H   -6.338631946039    2.734692603242   -0.900810000000
 H   -6.338631946039    2.734692603242    0.900810000000
 H   -5.827691946039    1.257892603242    0.000000000000
LI   -3.186951946039    2.019472603242    1.342980000000
LI   -3.186951946039    2.019472603242   -1.342980000000
 O    5.175487471905   -3.279546832579    0.000000000000
 C    6.584211634573   -2.826082565391    0.000000000000
 H    7.083232413788   -3.206528680456    0.900803956387
 H    7.083232413788   -3.206528680456   -0.900803956387
 H    6.572300231649   -1.729727269476    0.000000000000
 C    5.129889019505   -4.768758902513    0.000000000000
 H    5.666574572603   -5.113218418102    0.895739053976
 H    5.666574572603   -5.113218418102   -0.895739053976
 C    3.678393779965   -5.204153461153    0.000000000000
 H    3.633973334590   -6.303146107230    0.000000000000
 H    3.136825973831   -4.874838020888   -0.903162818412
 H    3.136825973831   -4.874838020888    0.903162818412
