8

 N   -0.025335144079   -0.006432374231    0.430135973746
 H   -0.429984144079    0.812176625769    0.879431973746
 H   -0.429984144079   -0.825041374231    0.879431973746
 C    1.435102855921   -0.006432374231    0.568172973746
 H    1.834205855921   -0.888373374231    0.061783973746
 H    1.803783855921   -0.006432374231    1.604002973746
 H    1.834205855921    0.875508625769    0.061783973746
 K   -0.552174944851    0.005124641878   -0.419750053731
