8

 N    0.003987569729   -0.007075611654    0.477438711155
 H   -0.400661430271    0.811533388346    0.926734711155
 H   -0.400661430271   -0.825684611654    0.926734711155
 C    1.464425569729   -0.007075611654    0.615475711155
 H    1.863528569729   -0.889016611654    0.109086711155
 H    1.833106569729   -0.007075611654    1.651305711155
 H    1.863528569729    0.874865388346    0.109086711155
 K   -0.575536211121    0.005637106066   -0.457435919069
