8

 N    0.033310283536   -0.007718849077    0.524741448564
 H   -0.371338716464    0.810890150923    0.974037448564
 H   -0.371338716464   -0.826327849077    0.974037448564
 C    1.493748283536   -0.007718849077    0.662778448564
 H    1.892851283536   -0.889659849077    0.156389448564
 H    1.862429283536   -0.007718849077    1.698608448564
 H    1.892851283536    0.874222150923    0.156389448564
 K   -0.598897477391    0.006149570253   -0.495121784408
