8

 N    0.062632997344   -0.008362086500    0.572044185974
 H   -0.342016002656    0.810246913500    1.021340185974
 H   -0.342016002656   -0.826971086500    1.021340185974
 C    1.523070997344   -0.008362086500    0.710081185974
 H    1.922173997344   -0.890303086500    0.203692185974
 H    1.891751997344   -0.008362086500    1.745911185974
 H    1.922173997344    0.873578913500    0.203692185974
 K   -0.622258743661    0.006662034441   -0.532807649746
