8

 N    0.297214707804   -0.013507985885    0.950466085247
 H   -0.107434292196    0.805101014115    1.399762085247
 H   -0.107434292196   -0.832116985885    1.399762085247
 C    1.757652707804   -0.013507985885    1.088503085247
 H    2.156755707804   -0.895448985885    0.582114085247
 H    2.126333707804   -0.013507985885    2.124333085247
 H    2.156755707804    0.868433014115    0.582114085247
 K   -0.809148873819    0.010761747944   -0.834294572454
