8

 N    0.414505563033   -0.016080935577    1.139677034884
 H    0.009856563033    0.802528064423    1.588973034884
 H    0.009856563033   -0.834689935577    1.588973034884
 C    1.874943563033   -0.016080935577    1.277714034884
 H    2.274046563033   -0.898021935577    0.771325034884
 H    2.243624563033   -0.016080935577    2.313544034884
 H    2.274046563033    0.865860064423    0.771325034884
 K   -0.902593938898    0.012811604695   -0.985038033808
