8

 N    0.473150990648   -0.017367410423    1.234282509703
 H    0.068501990648    0.801241589577    1.683578509703
 H    0.068501990648   -0.835976410423    1.683578509703
 C    1.933588990648   -0.017367410423    1.372319509703
 H    2.332691990648   -0.899308410423    0.865930509703
 H    2.302269990648   -0.017367410423    2.408149509703
 H    2.332691990648    0.864573589577    0.865930509703
 K   -0.949316471438    0.013836533070   -1.060409764485
