8

 N    0.502473704456   -0.018010647846    1.281585247112
 H    0.097824704456    0.800598352154    1.730881247112
 H    0.097824704456   -0.836619647846    1.730881247112
 C    1.962911704456   -0.018010647846    1.419622247112
 H    2.362014704456   -0.899951647846    0.913233247112
 H    2.331592704456   -0.018010647846    2.455452247112
 H    2.362014704456    0.863930352154    0.913233247112
 K   -0.972677737708    0.014348997258   -1.098095629823
