8

 N    0.678409987301   -0.021870072385    1.565401671567
 H    0.273760987301    0.796738927615    2.014697671567
 H    0.273760987301   -0.840479072385    2.014697671567
 C    2.138847987301   -0.021870072385    1.703438671567
 H    2.537950987301   -0.903811072385    1.197049671567
 H    2.507528987301   -0.021870072385    2.739268671567
 H    2.537950987301    0.860070927615    1.197049671567
 K   -1.112845335326    0.017423782385   -1.324210821854
