8

 N    0.707732701108   -0.022513309808    1.612704408976
 H    0.303083701108    0.796095690192    2.062000408976
 H    0.303083701108   -0.841122309808    2.062000408976
 C    2.168170701108   -0.022513309808    1.750741408976
 H    2.567273701108   -0.904454309808    1.244352408976
 H    2.536851701108   -0.022513309808    2.786571408976
 H    2.567273701108    0.859427690192    1.244352408976
 K   -1.136206601596    0.017936246573   -1.361896687193
