8

 N    0.912991697761   -0.027015971769    1.943823570841
 H    0.508342697761    0.791593028231    2.393119570841
 H    0.508342697761   -0.845624971769    2.393119570841
 C    2.373429697761   -0.027015971769    2.081860570841
 H    2.772532697761   -0.908956971769    1.575471570841
 H    2.742110697761   -0.027015971769    3.117690570841
 H    2.772532697761    0.854925028231    1.575471570841
 K   -1.299735465485    0.021523495887   -1.625697744562
