8

 N    0.942314411568   -0.027659209192    1.991126308250
 H    0.537665411568    0.790949790808    2.440422308250
 H    0.537665411568   -0.846268209192    2.440422308250
 C    2.402752411568   -0.027659209192    2.129163308250
 H    2.801855411568   -0.909600209192    1.622774308250
 H    2.771433411568   -0.027659209192    3.164993308250
 H    2.801855411568    0.854281790808    1.622774308250
 K   -1.323096731755    0.022035960075   -1.663383609901
