8

 N    0.971637125376   -0.028302446615    2.038429045659
 H    0.566988125376    0.790306553385    2.487725045659
 H    0.566988125376   -0.846911446615    2.487725045659
 C    2.432075125376   -0.028302446615    2.176466045659
 H    2.831178125376   -0.910243446615    1.670077045659
 H    2.800756125376   -0.028302446615    3.212296045659
 H    2.831178125376    0.853638553385    1.670077045659
 K   -1.346457998024    0.022548424263   -1.701069475239
