8

 N    1.088927980605   -0.030875396308    2.227639995296
 H    0.684278980605    0.787733603692    2.676935995296
 H    0.684278980605   -0.849484396308    2.676935995296
 C    2.549365980605   -0.030875396308    2.365676995296
 H    2.948468980605   -0.912816396308    1.859287995296
 H    2.918046980605   -0.030875396308    3.401506995296
 H    2.948468980605    0.851065603692    1.859287995296
 K   -1.439903063104    0.024598281014   -1.851812936593
