8

 N    1.118250694413   -0.031518633731    2.274942732705
 H    0.713601694413    0.787090366269    2.724238732705
 H    0.713601694413   -0.850127633731    2.724238732705
 C    2.578688694413   -0.031518633731    2.412979732705
 H    2.977791694413   -0.913459633731    1.906590732705
 H    2.947369694413   -0.031518633731    3.448809732705
 H    2.977791694413    0.850422366269    1.906590732705
 K   -1.463264329373    0.025110745202   -1.889498801931
