8

 N    1.147573408220   -0.032161871154    2.322245470115
 H    0.742924408220    0.786447128846    2.771541470115
 H    0.742924408220   -0.850770871154    2.771541470115
 C    2.608011408220   -0.032161871154    2.460282470115
 H    3.007114408220   -0.914102871154    1.953893470115
 H    2.976692408220   -0.032161871154    3.496112470115
 H    3.007114408220    0.849779128846    1.953893470115
 K   -1.486625595643    0.025623209390   -1.927184667270
