8

 N    1.176896122028   -0.032805108577    2.369548207524
 H    0.772247122028    0.785803891423    2.818844207524
 H    0.772247122028   -0.851414108577    2.818844207524
 C    2.637334122028   -0.032805108577    2.507585207524
 H    3.036437122028   -0.914746108577    2.001196207524
 H    3.006015122028   -0.032805108577    3.543415207524
 H    3.036437122028    0.849135891423    2.001196207524
 K   -1.509986861913    0.026135673577   -1.964870532608
