8

 N    1.323509691065   -0.036021295692    2.606061894570
 H    0.918860691065    0.782587704308    3.055357894570
 H    0.918860691065   -0.854630295692    3.055357894570
 C    2.783947691065   -0.036021295692    2.744098894570
 H    3.183050691065   -0.917962295692    2.237709894570
 H    3.152628691065   -0.036021295692    3.779928894570
 H    3.183050691065    0.845919704308    2.237709894570
 K   -1.626793193262    0.028697994516   -2.153299859301
