8

 N    1.352832404873   -0.036664533115    2.653364631979
 H    0.948183404873    0.781944466885    3.102660631979
 H    0.948183404873   -0.855273533115    3.102660631979
 C    2.813270404873   -0.036664533115    2.791401631979
 H    3.212373404873   -0.918605533115    2.285012631979
 H    3.181951404873   -0.036664533115    3.827231631979
 H    3.212373404873    0.845276466885    2.285012631979
 K   -1.650154459532    0.029210458704   -2.190985724639
