8

 N    1.470123260103   -0.039237482808    2.842575581616
 H    1.065474260103    0.779371517192    3.291871581616
 H    1.065474260103   -0.857846482808    3.291871581616
 C    2.930561260103   -0.039237482808    2.980612581616
 H    3.329664260103   -0.921178482808    2.474223581616
 H    3.299242260103   -0.039237482808    4.016442581616
 H    3.329664260103    0.842703517192    2.474223581616
 K   -1.743599524611    0.031260315455   -2.341729185993
