8

 N    1.528768687718   -0.040523957654    2.937181056434
 H    1.124119687718    0.778085042346    3.386477056434
 H    1.124119687718   -0.859132957654    3.386477056434
 C    2.989206687718   -0.040523957654    3.075218056434
 H    3.388309687718   -0.922464957654    2.568829056434
 H    3.357887687718   -0.040523957654    4.111048056434
 H    3.388309687718    0.841417042346    2.568829056434
 K   -1.790322057151    0.032285243831   -2.417100916670
