8

 N    1.558091401525   -0.041167195077    2.984483793844
 H    1.153442401525    0.777441804923    3.433779793844
 H    1.153442401525   -0.859776195077    3.433779793844
 C    3.018529401525   -0.041167195077    3.122520793844
 H    3.417632401525   -0.923108195077    2.616131793844
 H    3.387210401525   -0.041167195077    4.158350793844
 H    3.417632401525    0.840773804923    2.616131793844
 K   -1.813683323420    0.032797708019   -2.454786782008
