8

 N    1.646059542947   -0.043096907346    3.126392006071
 H    1.241410542947    0.775512092654    3.575688006071
 H    1.241410542947   -0.861705907346    3.575688006071
 C    3.106497542947   -0.043096907346    3.264429006071
 H    3.505600542947   -0.925037907346    2.758040006071
 H    3.475178542947   -0.043096907346    4.300259006071
 H    3.505600542947    0.838844092654    2.758040006071
 K   -1.883767122230    0.034335100582   -2.567844378024
