8

 N    1.763350398177   -0.045669857038    3.315602955708
 H    1.358701398177    0.772939142962    3.764898955708
 H    1.358701398177   -0.864278857038    3.764898955708
 C    3.223788398177   -0.045669857038    3.453639955708
 H    3.622891398177   -0.927610857038    2.947250955708
 H    3.592469398177   -0.045669857038    4.489469955708
 H    3.622891398177    0.836271142962    2.947250955708
 K   -1.977212187309    0.036384957333   -2.718587839378
