8

 N    1.909963967215   -0.048886044154    3.552116642754
 H    1.505314967215    0.769722955846    4.001412642754
 H    1.505314967215   -0.867495044154    4.001412642754
 C    3.370401967215   -0.048886044154    3.690153642754
 H    3.769504967215   -0.930827044154    3.183764642754
 H    3.739082967215   -0.048886044154    4.725983642754
 H    3.769504967215    0.833054955846    3.183764642754
 K   -2.094018518658    0.038947278272   -2.907017166070
