8

 N    1.968609394830   -0.050172519000    3.646722117573
 H    1.563960394830    0.768436481000    4.096018117573
 H    1.563960394830   -0.868781519000    4.096018117573
 C    3.429047394830   -0.050172519000    3.784759117573
 H    3.828150394830   -0.932113519000    3.278370117573
 H    3.797728394830   -0.050172519000    4.820589117573
 H    3.828150394830    0.831768481000    3.278370117573
 K   -2.140741051197    0.039972206648   -2.982388896747
