8

 N    2.115222963867   -0.053388706115    3.883235804619
 H    1.710573963867    0.765220293885    4.332531804619
 H    1.710573963867   -0.871997706115    4.332531804619
 C    3.575660963867   -0.053388706115    4.021272804619
 H    3.974763963867   -0.935329706115    3.514883804619
 H    3.944341963867   -0.053388706115    5.057102804619
 H    3.974763963867    0.828552293885    3.514883804619
 K   -2.257547382546    0.042534527587   -3.170818223439
