8

 N    2.555063670979   -0.063037267461    4.592776865757
 H    2.150414670979    0.755571732539    5.042072865757
 H    2.150414670979   -0.881646267461    5.042072865757
 C    4.015501670979   -0.063037267461    4.730813865757
 H    4.414604670979   -0.944978267461    4.224424865757
 H    4.384182670979   -0.063037267461    5.766643865757
 H    4.414604670979    0.818903732539    4.224424865757
 K   -2.607966376593    0.050221490404   -3.736106203516
