12

 C   -1.275267141372    1.331265335502    0.000000000000
 C   -0.162925141372    0.311787335502    0.000000000000
 O   -0.667256141372   -0.954665664498    0.000000000000
 C    0.347209858628   -1.988404664498    0.000000000000
 O    1.034714858628    0.556280335502    0.000000000000
 H   -0.842697141372    2.338275335502    0.000000000000
 H   -1.907604141372    1.188693335502    0.888615000000
 H   -1.907604141372    1.188693335502   -0.888615000000
 H   -0.206887141372   -2.933528664498    0.000000000000
 H    0.977004858628   -1.902105664498    0.896190000000
 H    0.977004858628   -1.902105664498   -0.896190000000
LI    1.446390126545    1.789375414474    0.000000000000
