12

 C   -1.278008294437    1.323054732100    0.000000000000
 C   -0.165666294437    0.303576732100    0.000000000000
 O   -0.669997294437   -0.962876267900    0.000000000000
 C    0.344468705563   -1.996615267900    0.000000000000
 O    1.031973705563    0.548069732100    0.000000000000
 H   -0.845438294437    2.330064732100    0.000000000000
 H   -1.910345294437    1.180482732100    0.888615000000
 H   -1.910345294437    1.180482732100   -0.888615000000
 H   -0.209628294437   -2.941739267900    0.000000000000
 H    0.974263705563   -1.910316267900    0.896190000000
 H    0.974263705563   -1.910316267900   -0.896190000000
LI    1.475316301781    1.876018278686    0.000000000000
