12

 C   -1.280749447502    1.314844128698    0.000000000000
 C   -0.168407447502    0.295366128698    0.000000000000
 O   -0.672738447502   -0.971086871302    0.000000000000
 C    0.341727552498   -2.004825871302    0.000000000000
 O    1.029232552498    0.539859128698    0.000000000000
 H   -0.848179447502    2.321854128698    0.000000000000
 H   -1.913086447502    1.172272128698    0.888615000000
 H   -1.913086447502    1.172272128698   -0.888615000000
 H   -0.212369447502   -2.949949871302    0.000000000000
 H    0.971522552498   -1.918526871302    0.896190000000
 H    0.971522552498   -1.918526871302   -0.896190000000
LI    1.504242477018    1.962661142897    0.000000000000
