12

 C   -1.288972906697    1.290212318493    0.000000000000
 C   -0.176630906697    0.270734318493    0.000000000000
 O   -0.680961906697   -0.995718681507    0.000000000000
 C    0.333504093303   -2.029457681507    0.000000000000
 O    1.021009093303    0.515227318493    0.000000000000
 H   -0.856402906697    2.297222318493    0.000000000000
 H   -1.921309906697    1.147640318493    0.888615000000
 H   -1.921309906697    1.147640318493   -0.888615000000
 H   -0.220592906697   -2.974581681507    0.000000000000
 H    0.963299093303   -1.943158681507    0.896190000000
 H    0.963299093303   -1.943158681507   -0.896190000000
LI    1.591021002727    2.222589735531    0.000000000000
