12

 C   -1.291714059762    1.282001715091    0.000000000000
 C   -0.179372059762    0.262523715091    0.000000000000
 O   -0.683703059762   -1.003929284909    0.000000000000
 C    0.330762940238   -2.037668284909    0.000000000000
 O    1.018267940238    0.507016715091    0.000000000000
 H   -0.859144059762    2.289011715091    0.000000000000
 H   -1.924051059762    1.139429715091    0.888615000000
 H   -1.924051059762    1.139429715091   -0.888615000000
 H   -0.223334059762   -2.982792284909    0.000000000000
 H    0.960557940238   -1.951369284909    0.896190000000
 H    0.960557940238   -1.951369284909   -0.896190000000
LI    1.619947177963    2.309232599743    0.000000000000
