12

 C   -1.316384437347    1.208106284475    0.000000000000
 C   -0.204042437347    0.188628284475    0.000000000000
 O   -0.708373437347   -1.077824715525    0.000000000000
 C    0.306092562653   -2.111563715525    0.000000000000
 O    0.993597562653    0.433121284475    0.000000000000
 H   -0.883814437347    2.215116284475    0.000000000000
 H   -1.948721437347    1.065534284475    0.888615000000
 H   -1.948721437347    1.065534284475   -0.888615000000
 H   -0.248004437347   -3.056687715525    0.000000000000
 H    0.935887562653   -2.025264715525    0.896190000000
 H    0.935887562653   -2.025264715525   -0.896190000000
LI    1.880282755090    3.089018377646    0.000000000000
