12

 C   -1.332831355737    1.158842664065    0.000000000000
 C   -0.220489355737    0.139364664065    0.000000000000
 O   -0.724820355737   -1.127088335935    0.000000000000
 C    0.289645644263   -2.160827335935    0.000000000000
 O    0.977150644263    0.383857664065    0.000000000000
 H   -0.900261355737    2.165852664065    0.000000000000
 H   -1.965168355737    1.016270664065    0.888615000000
 H   -1.965168355737    1.016270664065   -0.888615000000
 H   -0.264451355737   -3.105951335935    0.000000000000
 H    0.919440644263   -2.074528335935    0.896190000000
 H    0.919440644263   -2.074528335935   -0.896190000000
LI    2.053839806508    3.608875562915    0.000000000000
