12

 C   -1.338313661868    1.142421457261    0.000000000000
 C   -0.225971661868    0.122943457261    0.000000000000
 O   -0.730302661868   -1.143509542739    0.000000000000
 C    0.284163338132   -2.177248542739    0.000000000000
 O    0.971668338132    0.367436457261    0.000000000000
 H   -0.905743661868    2.149431457261    0.000000000000
 H   -1.970650661868    0.999849457261    0.888615000000
 H   -1.970650661868    0.999849457261   -0.888615000000
 H   -0.269933661868   -3.122372542739    0.000000000000
 H    0.913958338132   -2.090949542739    0.896190000000
 H    0.913958338132   -2.090949542739   -0.896190000000
LI    2.111692156980    3.782161291338    0.000000000000
