12

 C   -1.341054814933    1.134210853860    0.000000000000
 C   -0.228712814933    0.114732853860    0.000000000000
 O   -0.733043814933   -1.151720146140    0.000000000000
 C    0.281422185067   -2.185459146140    0.000000000000
 O    0.968927185067    0.359225853860    0.000000000000
 H   -0.908484814933    2.141220853860    0.000000000000
 H   -1.973391814933    0.991638853860    0.888615000000
 H   -1.973391814933    0.991638853860   -0.888615000000
 H   -0.272674814933   -3.130583146140    0.000000000000
 H    0.911217185067   -2.099160146140    0.896190000000
 H    0.911217185067   -2.099160146140   -0.896190000000
LI    2.140618332217    3.868804155549    0.000000000000
