12

 C   -1.343795967998    1.126000250458    0.000000000000
 C   -0.231453967998    0.106522250458    0.000000000000
 O   -0.735784967998   -1.159930749542    0.000000000000
 C    0.278681032002   -2.193669749542    0.000000000000
 O    0.966186032002    0.351015250458    0.000000000000
 H   -0.911225967998    2.133010250458    0.000000000000
 H   -1.976132967998    0.983428250458    0.888615000000
 H   -1.976132967998    0.983428250458   -0.888615000000
 H   -0.275415967998   -3.138793749542    0.000000000000
 H    0.908476032002   -2.107370749542    0.896190000000
 H    0.908476032002   -2.107370749542   -0.896190000000
LI    2.169544507453    3.955447019761    0.000000000000
