12

 C   -1.346537121063    1.117789647056    0.000000000000
 C   -0.234195121063    0.098311647056    0.000000000000
 O   -0.738526121063   -1.168141352944    0.000000000000
 C    0.275939878937   -2.201880352944    0.000000000000
 O    0.963444878937    0.342804647056    0.000000000000
 H   -0.913967121063    2.124799647056    0.000000000000
 H   -1.978874121063    0.975217647056    0.888615000000
 H   -1.978874121063    0.975217647056   -0.888615000000
 H   -0.278157121063   -3.147004352944    0.000000000000
 H    0.905734878937   -2.115581352944    0.896190000000
 H    0.905734878937   -2.115581352944   -0.896190000000
LI    2.198470682689    4.042089883972    0.000000000000
