12

 C   -1.349278274128    1.109579043654    0.000000000000
 C   -0.236936274128    0.090101043654    0.000000000000
 O   -0.741267274128   -1.176351956346    0.000000000000
 C    0.273198725872   -2.210090956346    0.000000000000
 O    0.960703725872    0.334594043654    0.000000000000
 H   -0.916708274128    2.116589043654    0.000000000000
 H   -1.981615274128    0.967007043654    0.888615000000
 H   -1.981615274128    0.967007043654   -0.888615000000
 H   -0.280898274128   -3.155214956346    0.000000000000
 H    0.902993725872   -2.123791956346    0.896190000000
 H    0.902993725872   -2.123791956346   -0.896190000000
LI    2.227396857925    4.128732748184    0.000000000000
