12

 C   -1.354760580258    1.093157836851    0.000000000000
 C   -0.242418580258    0.073679836851    0.000000000000
 O   -0.746749580258   -1.192773163149    0.000000000000
 C    0.267716419742   -2.226512163149    0.000000000000
 O    0.955221419742    0.318172836851    0.000000000000
 H   -0.922190580258    2.100167836851    0.000000000000
 H   -1.987097580258    0.950585836851    0.888615000000
 H   -1.987097580258    0.950585836851   -0.888615000000
 H   -0.286380580258   -3.171636163149    0.000000000000
 H    0.897511419742   -2.140213163149    0.896190000000
 H    0.897511419742   -2.140213163149   -0.896190000000
LI    2.285249208398    4.302018476607    0.000000000000
