12

 C   -1.357501733323    1.084947233449    0.000000000000
 C   -0.245159733323    0.065469233449    0.000000000000
 O   -0.749490733323   -1.200983766551    0.000000000000
 C    0.264975266677   -2.234722766551    0.000000000000
 O    0.952480266677    0.309962233449    0.000000000000
 H   -0.924931733323    2.091957233449    0.000000000000
 H   -1.989838733323    0.942375233449    0.888615000000
 H   -1.989838733323    0.942375233449   -0.888615000000
 H   -0.289121733323   -3.179846766551    0.000000000000
 H    0.894770266677   -2.148423766551    0.896190000000
 H    0.894770266677   -2.148423766551   -0.896190000000
LI    2.314175383634    4.388661340818    0.000000000000
