12

 C   -1.360242886388    1.076736630047    0.000000000000
 C   -0.247900886388    0.057258630047    0.000000000000
 O   -0.752231886388   -1.209194369953    0.000000000000
 C    0.262234113612   -2.242933369953    0.000000000000
 O    0.949739113612    0.301751630047    0.000000000000
 H   -0.927672886388    2.083746630047    0.000000000000
 H   -1.992579886388    0.934164630047    0.888615000000
 H   -1.992579886388    0.934164630047   -0.888615000000
 H   -0.291862886388   -3.188057369953    0.000000000000
 H    0.892029113612   -2.156634369953    0.896190000000
 H    0.892029113612   -2.156634369953   -0.896190000000
LI    2.343101558871    4.475304205030    0.000000000000
