12

 C   -1.362984039453    1.068526026645    0.000000000000
 C   -0.250642039453    0.049048026645    0.000000000000
 O   -0.754973039453   -1.217404973355    0.000000000000
 C    0.259492960547   -2.251143973355    0.000000000000
 O    0.946997960547    0.293541026645    0.000000000000
 H   -0.930414039453    2.075536026645    0.000000000000
 H   -1.995321039453    0.925954026645    0.888615000000
 H   -1.995321039453    0.925954026645   -0.888615000000
 H   -0.294604039453   -3.196267973355    0.000000000000
 H    0.889287960547   -2.164844973355    0.896190000000
 H    0.889287960547   -2.164844973355   -0.896190000000
LI    2.372027734107    4.561947069241    0.000000000000
