12

 C   -1.365725192518    1.060315423244    0.000000000000
 C   -0.253383192518    0.040837423244    0.000000000000
 O   -0.757714192518   -1.225615576756    0.000000000000
 C    0.256751807482   -2.259354576756    0.000000000000
 O    0.944256807482    0.285330423244    0.000000000000
 H   -0.933155192518    2.067325423244    0.000000000000
 H   -1.998062192518    0.917743423244    0.888615000000
 H   -1.998062192518    0.917743423244   -0.888615000000
 H   -0.297345192518   -3.204478576756    0.000000000000
 H    0.886546807482   -2.173055576756    0.896190000000
 H    0.886546807482   -2.173055576756   -0.896190000000
LI    2.400953909343    4.648589933453    0.000000000000
