12

 C   -1.371207498648    1.043894216440    0.000000000000
 C   -0.258865498648    0.024416216440    0.000000000000
 O   -0.763196498648   -1.242036783560    0.000000000000
 C    0.251269501352   -2.275775783560    0.000000000000
 O    0.938774501352    0.268909216440    0.000000000000
 H   -0.938637498648    2.050904216440    0.000000000000
 H   -2.003544498648    0.901322216440    0.888615000000
 H   -2.003544498648    0.901322216440   -0.888615000000
 H   -0.302827498648   -3.220899783560    0.000000000000
 H    0.881064501352   -2.189476783560    0.896190000000
 H    0.881064501352   -2.189476783560   -0.896190000000
LI    2.458806259816    4.821875661876    0.000000000000
