12

 C   -1.373948651713    1.035683613038    0.000000000000
 C   -0.261606651713    0.016205613038    0.000000000000
 O   -0.765937651713   -1.250247386962    0.000000000000
 C    0.248528348287   -2.283986386962    0.000000000000
 O    0.936033348287    0.260698613038    0.000000000000
 H   -0.941378651713    2.042693613038    0.000000000000
 H   -2.006285651713    0.893111613038    0.888615000000
 H   -2.006285651713    0.893111613038   -0.888615000000
 H   -0.305568651713   -3.229110386962    0.000000000000
 H    0.878323348287   -2.197687386962    0.896190000000
 H    0.878323348287   -2.197687386962   -0.896190000000
LI    2.487732435052    4.908518526087    0.000000000000
