12

 C   -1.390395570103    0.986419992628    0.000000000000
 C   -0.278053570103   -0.033058007372    0.000000000000
 O   -0.782384570103   -1.299511007372    0.000000000000
 C    0.232081429897   -2.333250007372    0.000000000000
 O    0.919586429897    0.211434992628    0.000000000000
 H   -0.957825570103    1.993429992628    0.000000000000
 H   -2.022732570103    0.843847992628    0.888615000000
 H   -2.022732570103    0.843847992628   -0.888615000000
 H   -0.322015570103   -3.278374007372    0.000000000000
 H    0.861876429897   -2.246951007372    0.896190000000
 H    0.861876429897   -2.246951007372   -0.896190000000
LI    2.661289486470    5.428375711356    0.000000000000
