12

 C   -1.393136723168    0.978209389226    0.000000000000
 C   -0.280794723168   -0.041268610774    0.000000000000
 O   -0.785125723168   -1.307721610774    0.000000000000
 C    0.229340276832   -2.341460610774    0.000000000000
 O    0.916845276832    0.203224389226    0.000000000000
 H   -0.960566723168    1.985219389226    0.000000000000
 H   -2.025473723168    0.835637389226    0.888615000000
 H   -2.025473723168    0.835637389226   -0.888615000000
 H   -0.324756723168   -3.286584610774    0.000000000000
 H    0.859135276832   -2.255161610774    0.896190000000
 H    0.859135276832   -2.255161610774   -0.896190000000
LI    2.690215661706    5.515018575567    0.000000000000
