12

 C   -1.398619029298    0.961788182422    0.000000000000
 C   -0.286277029298   -0.057689817578    0.000000000000
 O   -0.790608029298   -1.324142817578    0.000000000000
 C    0.223857970702   -2.357881817578    0.000000000000
 O    0.911362970702    0.186803182422    0.000000000000
 H   -0.966049029298    1.968798182422    0.000000000000
 H   -2.030956029298    0.819216182422    0.888615000000
 H   -2.030956029298    0.819216182422   -0.888615000000
 H   -0.330239029298   -3.303005817578    0.000000000000
 H    0.853652970702   -2.271582817578    0.896190000000
 H    0.853652970702   -2.271582817578   -0.896190000000
LI    2.748068012179    5.688304303990    0.000000000000
