12

 C   -1.409583641558    0.928945768815    0.000000000000
 C   -0.297241641558   -0.090532231185    0.000000000000
 O   -0.801572641558   -1.356985231185    0.000000000000
 C    0.212893358442   -2.390724231185    0.000000000000
 O    0.900398358442    0.153960768815    0.000000000000
 H   -0.977013641558    1.935955768815    0.000000000000
 H   -2.041920641558    0.786373768815    0.888615000000
 H   -2.041920641558    0.786373768815   -0.888615000000
 H   -0.341203641558   -3.335848231185    0.000000000000
 H    0.842688358442   -2.304425231185    0.896190000000
 H    0.842688358442   -2.304425231185   -0.896190000000
LI    2.863772713124    6.034875760836    0.000000000000
