12

 C   -1.423289406883    0.887892751807    0.000000000000
 C   -0.310947406883   -0.131585248193    0.000000000000
 O   -0.815278406883   -1.398038248193    0.000000000000
 C    0.199187593117   -2.431777248193    0.000000000000
 O    0.886692593117    0.112907751807    0.000000000000
 H   -0.990719406883    1.894902751807    0.000000000000
 H   -2.055626406883    0.745320751807    0.888615000000
 H   -2.055626406883    0.745320751807   -0.888615000000
 H   -0.354909406883   -3.376901248193    0.000000000000
 H    0.828982593117   -2.345478248193    0.896190000000
 H    0.828982593117   -2.345478248193   -0.896190000000
LI    3.008403589306    6.468090081894    0.000000000000
