12

 C   -1.428771713013    0.871471545003    0.000000000000
 C   -0.316429713013   -0.148006454997    0.000000000000
 O   -0.820760713013   -1.414459454997    0.000000000000
 C    0.193705286987   -2.448198454997    0.000000000000
 O    0.881210286987    0.096486545003    0.000000000000
 H   -0.996201713013    1.878481545003    0.000000000000
 H   -2.061108713013    0.728899545003    0.888615000000
 H   -2.061108713013    0.728899545003   -0.888615000000
 H   -0.360391713013   -3.393322454997    0.000000000000
 H    0.823500286987   -2.361899454997    0.896190000000
 H    0.823500286987   -2.361899454997   -0.896190000000
LI    3.066255939778    6.641375810317    0.000000000000
