12

 C   -1.456183243663    0.789365510985    0.000000000000
 C   -0.343841243663   -0.230112489015    0.000000000000
 O   -0.848172243663   -1.496565489015    0.000000000000
 C    0.166293756337   -2.530304489015    0.000000000000
 O    0.853798756337    0.014380510985    0.000000000000
 H   -1.023613243663    1.796375510985    0.000000000000
 H   -2.088520243663    0.646793510985    0.888615000000
 H   -2.088520243663    0.646793510985   -0.888615000000
 H   -0.387803243663   -3.475428489015    0.000000000000
 H    0.796088756337   -2.444005489015    0.896190000000
 H    0.796088756337   -2.444005489015   -0.896190000000
LI    3.355517692141    7.507804452431    0.000000000000
