12

 C   -1.469889008988    0.748312493976    0.000000000000
 C   -0.357547008988   -0.271165506024    0.000000000000
 O   -0.861878008988   -1.537618506024    0.000000000000
 C    0.152587991012   -2.571357506024    0.000000000000
 O    0.840092991012   -0.026672506024    0.000000000000
 H   -1.037319008988    1.755322493976    0.000000000000
 H   -2.102226008988    0.605740493976    0.888615000000
 H   -2.102226008988    0.605740493976   -0.888615000000
 H   -0.401509008988   -3.516481506024    0.000000000000
 H    0.782382991012   -2.485058506024    0.896190000000
 H    0.782382991012   -2.485058506024   -0.896190000000
LI    3.500148568323    7.941018773489    0.000000000000
