12

 C   -1.475371315118    0.731891287173    0.000000000000
 C   -0.363029315118   -0.287586712827    0.000000000000
 O   -0.867360315118   -1.554039712827    0.000000000000
 C    0.147105684882   -2.587778712827    0.000000000000
 O    0.834610684882   -0.043093712827    0.000000000000
 H   -1.042801315118    1.738901287173    0.000000000000
 H   -2.107708315118    0.589319287173    0.888615000000
 H   -2.107708315118    0.589319287173   -0.888615000000
 H   -0.406991315118   -3.532902712827    0.000000000000
 H    0.776900684882   -2.501479712827    0.896190000000
 H    0.776900684882   -2.501479712827   -0.896190000000
LI    3.558000918796    8.114304501912    0.000000000000
