12

 C   -1.489077080444    0.690838270164    0.000000000000
 C   -0.376735080444   -0.328639729836    0.000000000000
 O   -0.881066080444   -1.595092729836    0.000000000000
 C    0.133399919556   -2.628831729836    0.000000000000
 O    0.820904919556   -0.084146729836    0.000000000000
 H   -1.056507080444    1.697848270164    0.000000000000
 H   -2.121414080444    0.548266270164    0.888615000000
 H   -2.121414080444    0.548266270164   -0.888615000000
 H   -0.420697080444   -3.573955729836    0.000000000000
 H    0.763194919556   -2.542532729836    0.896190000000
 H    0.763194919556   -2.542532729836   -0.896190000000
LI    3.702631794977    8.547518822969    0.000000000000
