12

 C   -1.491818233509    0.682627666762    0.000000000000
 C   -0.379476233509   -0.336850333238    0.000000000000
 O   -0.883807233509   -1.603303333238    0.000000000000
 C    0.130658766491   -2.637042333238    0.000000000000
 O    0.818163766491   -0.092357333238    0.000000000000
 H   -1.059248233509    1.689637666762    0.000000000000
 H   -2.124155233509    0.540055666762    0.888615000000
 H   -2.124155233509    0.540055666762   -0.888615000000
 H   -0.423438233509   -3.582166333238    0.000000000000
 H    0.760453766491   -2.550743333238    0.896190000000
 H    0.760453766491   -2.550743333238   -0.896190000000
LI    3.731557970213    8.634161687180    0.000000000000
