12

 C   -1.500041692704    0.657995856557    0.000000000000
 C   -0.387699692704   -0.361482143443    0.000000000000
 O   -0.892030692704   -1.627935143443    0.000000000000
 C    0.122435307296   -2.661674143443    0.000000000000
 O    0.809940307296   -0.116989143443    0.000000000000
 H   -1.067471692704    1.665005856557    0.000000000000
 H   -2.132378692704    0.515423856557    0.888615000000
 H   -2.132378692704    0.515423856557   -0.888615000000
 H   -0.431661692704   -3.606798143443    0.000000000000
 H    0.752230307296   -2.575375143443    0.896190000000
 H    0.752230307296   -2.575375143443   -0.896190000000
LI    3.818336495922    8.894090279815    0.000000000000
