20

 H    3.322426624070    1.359010022988   -0.903800000000
 H    2.114716624070    2.340520022988    0.000000000000
 H    3.322426624070    1.359010022988    0.903800000000
 C    2.702796624070    1.413320022988    0.000000000000
 S    1.535996624070    0.000000022988    0.000000000000
 C    2.702796624070   -1.413319977012    0.000000000000
 H    3.322426624070   -1.359009977012    0.903800000000
 H    2.114716624070   -2.340519977012    0.000000000000
 H    3.322426624070   -1.359009977012   -0.903800000000
LI   -0.192453375930    0.000000022988    1.825460000000
LI   -0.192453375930    0.000000022988   -1.825460000000
 S   -1.492453375930    0.000000022988    0.000000000000
 C   -2.659254527110   -1.413320296863    0.000000000000
 H   -3.278876834719   -1.359009644957    0.903801234510
 H   -2.071172103088   -2.340518864300    0.000000000000
 H   -3.278876834719   -1.359009644957   -0.903801234510
 C   -2.659254773781    1.413320139195    0.000000000000
 H   -3.278877071911    1.359009379144   -0.903801234510
 H   -2.071172511586    2.340518809271    0.000000000000
 H   -3.278877071911    1.359009379144    0.903801234510
