20

 H    3.367345142998    1.359010022988   -0.903800000000
 H    2.159635142998    2.340520022988    0.000000000000
 H    3.367345142998    1.359010022988    0.903800000000
 C    2.747715142998    1.413320022988    0.000000000000
 S    1.580915142998    0.000000022988    0.000000000000
 C    2.747715142998   -1.413319977012    0.000000000000
 H    3.367345142998   -1.359009977012    0.903800000000
 H    2.159635142998   -2.340519977012    0.000000000000
 H    3.367345142998   -1.359009977012   -0.903800000000
LI   -0.147534857002    0.000000022988    1.825460000000
LI   -0.147534857002    0.000000022988   -1.825460000000
 S   -1.547534857002    0.000000022988    0.000000000000
 C   -2.714336008182   -1.413320296863    0.000000000000
 H   -3.333958315791   -1.359009644957    0.903801234510
 H   -2.126253584160   -2.340518864300    0.000000000000
 H   -3.333958315791   -1.359009644957   -0.903801234510
 C   -2.714336254853    1.413320139195    0.000000000000
 H   -3.333958552983    1.359009379144   -0.903801234510
 H   -2.126253992658    2.340518809271    0.000000000000
 H   -3.333958552983    1.359009379144    0.903801234510
