20

 H    3.412263661926    1.359010022988   -0.903800000000
 H    2.204553661926    2.340520022988    0.000000000000
 H    3.412263661926    1.359010022988    0.903800000000
 C    2.792633661926    1.413320022988    0.000000000000
 S    1.625833661926    0.000000022988    0.000000000000
 C    2.792633661926   -1.413319977012    0.000000000000
 H    3.412263661926   -1.359009977012    0.903800000000
 H    2.204553661926   -2.340519977012    0.000000000000
 H    3.412263661926   -1.359009977012   -0.903800000000
LI   -0.102616338074    0.000000022988    1.825460000000
LI   -0.102616338074    0.000000022988   -1.825460000000
 S   -1.602616338074    0.000000022988    0.000000000000
 C   -2.769417489253   -1.413320296863    0.000000000000
 H   -3.389039796863   -1.359009644957    0.903801234510
 H   -2.181335065232   -2.340518864300    0.000000000000
 H   -3.389039796863   -1.359009644957   -0.903801234510
 C   -2.769417735924    1.413320139195    0.000000000000
 H   -3.389040034055    1.359009379144   -0.903801234510
 H   -2.181335473729    2.340518809271    0.000000000000
 H   -3.389040034055    1.359009379144    0.903801234510
