20

 H    3.636856256568    1.359010022988   -0.903800000000
 H    2.429146256568    2.340520022988    0.000000000000
 H    3.636856256568    1.359010022988    0.903800000000
 C    3.017226256568    1.413320022988    0.000000000000
 S    1.850426256568    0.000000022988    0.000000000000
 C    3.017226256568   -1.413319977012    0.000000000000
 H    3.636856256568   -1.359009977012    0.903800000000
 H    2.429146256568   -2.340519977012    0.000000000000
 H    3.636856256568   -1.359009977012   -0.903800000000
LI    0.121976256568    0.000000022988    1.825460000000
LI    0.121976256568    0.000000022988   -1.825460000000
 S   -1.878023743432    0.000000022988    0.000000000000
 C   -3.044824894612   -1.413320296863    0.000000000000
 H   -3.664447202221   -1.359009644957    0.903801234510
 H   -2.456742470591   -2.340518864300    0.000000000000
 H   -3.664447202221   -1.359009644957   -0.903801234510
 C   -3.044825141283    1.413320139195    0.000000000000
 H   -3.664447439413    1.359009379144   -0.903801234510
 H   -2.456742879088    2.340518809271    0.000000000000
 H   -3.664447439413    1.359009379144    0.903801234510
