20

 H    3.726693294424    1.359010022988   -0.903800000000
 H    2.518983294424    2.340520022988    0.000000000000
 H    3.726693294424    1.359010022988    0.903800000000
 C    3.107063294424    1.413320022988    0.000000000000
 S    1.940263294424    0.000000022988    0.000000000000
 C    3.107063294424   -1.413319977012    0.000000000000
 H    3.726693294424   -1.359009977012    0.903800000000
 H    2.518983294424   -2.340519977012    0.000000000000
 H    3.726693294424   -1.359009977012   -0.903800000000
LI    0.211813294424    0.000000022988    1.825460000000
LI    0.211813294424    0.000000022988   -1.825460000000
 S   -1.988186705576    0.000000022988    0.000000000000
 C   -3.154987856756   -1.413320296863    0.000000000000
 H   -3.774610164365   -1.359009644957    0.903801234510
 H   -2.566905432734   -2.340518864300    0.000000000000
 H   -3.774610164365   -1.359009644957   -0.903801234510
 C   -3.154988103426    1.413320139195    0.000000000000
 H   -3.774610401557    1.359009379144   -0.903801234510
 H   -2.566905841232    2.340518809271    0.000000000000
 H   -3.774610401557    1.359009379144    0.903801234510
