20

 H    3.771611813352    1.359010022988   -0.903800000000
 H    2.563901813352    2.340520022988    0.000000000000
 H    3.771611813352    1.359010022988    0.903800000000
 C    3.151981813352    1.413320022988    0.000000000000
 S    1.985181813352    0.000000022988    0.000000000000
 C    3.151981813352   -1.413319977012    0.000000000000
 H    3.771611813352   -1.359009977012    0.903800000000
 H    2.563901813352   -2.340519977012    0.000000000000
 H    3.771611813352   -1.359009977012   -0.903800000000
LI    0.256731813352    0.000000022988    1.825460000000
LI    0.256731813352    0.000000022988   -1.825460000000
 S   -2.043268186648    0.000000022988    0.000000000000
 C   -3.210069337827   -1.413320296863    0.000000000000
 H   -3.829691645437   -1.359009644957    0.903801234510
 H   -2.621986913806   -2.340518864300    0.000000000000
 H   -3.829691645437   -1.359009644957   -0.903801234510
 C   -3.210069584498    1.413320139195    0.000000000000
 H   -3.829691882628    1.359009379144   -0.903801234510
 H   -2.621987322303    2.340518809271    0.000000000000
 H   -3.829691882628    1.359009379144    0.903801234510
