20

 H    3.816530332281    1.359010022988   -0.903800000000
 H    2.608820332281    2.340520022988    0.000000000000
 H    3.816530332281    1.359010022988    0.903800000000
 C    3.196900332281    1.413320022988    0.000000000000
 S    2.030100332281    0.000000022988    0.000000000000
 C    3.196900332281   -1.413319977012    0.000000000000
 H    3.816530332281   -1.359009977012    0.903800000000
 H    2.608820332281   -2.340519977012    0.000000000000
 H    3.816530332281   -1.359009977012   -0.903800000000
LI    0.301650332281    0.000000022988    1.825460000000
LI    0.301650332281    0.000000022988   -1.825460000000
 S   -2.098349667719    0.000000022988    0.000000000000
 C   -3.265150818899   -1.413320296863    0.000000000000
 H   -3.884773126508   -1.359009644957    0.903801234510
 H   -2.677068394877   -2.340518864300    0.000000000000
 H   -3.884773126508   -1.359009644957   -0.903801234510
 C   -3.265151065570    1.413320139195    0.000000000000
 H   -3.884773363700    1.359009379144   -0.903801234510
 H   -2.677068803375    2.340518809271    0.000000000000
 H   -3.884773363700    1.359009379144    0.903801234510
