20

 H    3.906367370137    1.359010022988   -0.903800000000
 H    2.698657370137    2.340520022988    0.000000000000
 H    3.906367370137    1.359010022988    0.903800000000
 C    3.286737370137    1.413320022988    0.000000000000
 S    2.119937370137    0.000000022988    0.000000000000
 C    3.286737370137   -1.413319977012    0.000000000000
 H    3.906367370137   -1.359009977012    0.903800000000
 H    2.698657370137   -2.340519977012    0.000000000000
 H    3.906367370137   -1.359009977012   -0.903800000000
LI    0.391487370137    0.000000022988    1.825460000000
LI    0.391487370137    0.000000022988   -1.825460000000
 S   -2.208512629863    0.000000022988    0.000000000000
 C   -3.375313781042   -1.413320296863    0.000000000000
 H   -3.994936088652   -1.359009644957    0.903801234510
 H   -2.787231357021   -2.340518864300    0.000000000000
 H   -3.994936088652   -1.359009644957   -0.903801234510
 C   -3.375314027713    1.413320139195    0.000000000000
 H   -3.994936325844    1.359009379144   -0.903801234510
 H   -2.787231765519    2.340518809271    0.000000000000
 H   -3.994936325844    1.359009379144    0.903801234510
