20

 H    3.951285889066    1.359010022988   -0.903800000000
 H    2.743575889066    2.340520022988    0.000000000000
 H    3.951285889066    1.359010022988    0.903800000000
 C    3.331655889066    1.413320022988    0.000000000000
 S    2.164855889066    0.000000022988    0.000000000000
 C    3.331655889066   -1.413319977012    0.000000000000
 H    3.951285889066   -1.359009977012    0.903800000000
 H    2.743575889066   -2.340519977012    0.000000000000
 H    3.951285889066   -1.359009977012   -0.903800000000
LI    0.436405889066    0.000000022988    1.825460000000
LI    0.436405889066    0.000000022988   -1.825460000000
 S   -2.263594110934    0.000000022988    0.000000000000
 C   -3.430395262114   -1.413320296863    0.000000000000
 H   -4.050017569723   -1.359009644957    0.903801234510
 H   -2.842312838093   -2.340518864300    0.000000000000
 H   -4.050017569723   -1.359009644957   -0.903801234510
 C   -3.430395508785    1.413320139195    0.000000000000
 H   -4.050017806915    1.359009379144   -0.903801234510
 H   -2.842313246590    2.340518809271    0.000000000000
 H   -4.050017806915    1.359009379144    0.903801234510
