20

 H    3.996204407994    1.359010022988   -0.903800000000
 H    2.788494407994    2.340520022988    0.000000000000
 H    3.996204407994    1.359010022988    0.903800000000
 C    3.376574407994    1.413320022988    0.000000000000
 S    2.209774407994    0.000000022988    0.000000000000
 C    3.376574407994   -1.413319977012    0.000000000000
 H    3.996204407994   -1.359009977012    0.903800000000
 H    2.788494407994   -2.340519977012    0.000000000000
 H    3.996204407994   -1.359009977012   -0.903800000000
LI    0.481324407994    0.000000022988    1.825460000000
LI    0.481324407994    0.000000022988   -1.825460000000
 S   -2.318675592006    0.000000022988    0.000000000000
 C   -3.485476743186   -1.413320296863    0.000000000000
 H   -4.105099050795   -1.359009644957    0.903801234510
 H   -2.897394319164   -2.340518864300    0.000000000000
 H   -4.105099050795   -1.359009644957   -0.903801234510
 C   -3.485476989857    1.413320139195    0.000000000000
 H   -4.105099287987    1.359009379144   -0.903801234510
 H   -2.897394727662    2.340518809271    0.000000000000
 H   -4.105099287987    1.359009379144    0.903801234510
