20

 H    4.041122926922    1.359010022988   -0.903800000000
 H    2.833412926922    2.340520022988    0.000000000000
 H    4.041122926922    1.359010022988    0.903800000000
 C    3.421492926922    1.413320022988    0.000000000000
 S    2.254692926922    0.000000022988    0.000000000000
 C    3.421492926922   -1.413319977012    0.000000000000
 H    4.041122926922   -1.359009977012    0.903800000000
 H    2.833412926922   -2.340519977012    0.000000000000
 H    4.041122926922   -1.359009977012   -0.903800000000
LI    0.526242926922    0.000000022988    1.825460000000
LI    0.526242926922    0.000000022988   -1.825460000000
 S   -2.373757073078    0.000000022988    0.000000000000
 C   -3.540558224258   -1.413320296863    0.000000000000
 H   -4.160180531867   -1.359009644957    0.903801234510
 H   -2.952475800236   -2.340518864300    0.000000000000
 H   -4.160180531867   -1.359009644957   -0.903801234510
 C   -3.540558470929    1.413320139195    0.000000000000
 H   -4.160180769059    1.359009379144   -0.903801234510
 H   -2.952476208734    2.340518809271    0.000000000000
 H   -4.160180769059    1.359009379144    0.903801234510
