20

 H    4.086041445850    1.359010022988   -0.903800000000
 H    2.878331445850    2.340520022988    0.000000000000
 H    4.086041445850    1.359010022988    0.903800000000
 C    3.466411445850    1.413320022988    0.000000000000
 S    2.299611445850    0.000000022988    0.000000000000
 C    3.466411445850   -1.413319977012    0.000000000000
 H    4.086041445850   -1.359009977012    0.903800000000
 H    2.878331445850   -2.340519977012    0.000000000000
 H    4.086041445850   -1.359009977012   -0.903800000000
LI    0.571161445850    0.000000022988    1.825460000000
LI    0.571161445850    0.000000022988   -1.825460000000
 S   -2.428838554150    0.000000022988    0.000000000000
 C   -3.595639705329   -1.413320296863    0.000000000000
 H   -4.215262012939   -1.359009644957    0.903801234510
 H   -3.007557281308   -2.340518864300    0.000000000000
 H   -4.215262012939   -1.359009644957   -0.903801234510
 C   -3.595639952000    1.413320139195    0.000000000000
 H   -4.215262250131    1.359009379144   -0.903801234510
 H   -3.007557689805    2.340518809271    0.000000000000
 H   -4.215262250131    1.359009379144    0.903801234510
