20

 H    4.130959964779    1.359010022988   -0.903800000000
 H    2.923249964779    2.340520022988    0.000000000000
 H    4.130959964779    1.359010022988    0.903800000000
 C    3.511329964779    1.413320022988    0.000000000000
 S    2.344529964779    0.000000022988    0.000000000000
 C    3.511329964779   -1.413319977012    0.000000000000
 H    4.130959964779   -1.359009977012    0.903800000000
 H    2.923249964779   -2.340519977012    0.000000000000
 H    4.130959964779   -1.359009977012   -0.903800000000
LI    0.616079964779    0.000000022988    1.825460000000
LI    0.616079964779    0.000000022988   -1.825460000000
 S   -2.483920035221    0.000000022988    0.000000000000
 C   -3.650721186401   -1.413320296863    0.000000000000
 H   -4.270343494010   -1.359009644957    0.903801234510
 H   -3.062638762380   -2.340518864300    0.000000000000
 H   -4.270343494010   -1.359009644957   -0.903801234510
 C   -3.650721433072    1.413320139195    0.000000000000
 H   -4.270343731202    1.359009379144   -0.903801234510
 H   -3.062639170877    2.340518809271    0.000000000000
 H   -4.270343731202    1.359009379144    0.903801234510
