20

 H    4.355552559420    1.359010022988   -0.903800000000
 H    3.147842559420    2.340520022988    0.000000000000
 H    4.355552559420    1.359010022988    0.903800000000
 C    3.735922559420    1.413320022988    0.000000000000
 S    2.569122559420    0.000000022988    0.000000000000
 C    3.735922559420   -1.413319977012    0.000000000000
 H    4.355552559420   -1.359009977012    0.903800000000
 H    3.147842559420   -2.340519977012    0.000000000000
 H    4.355552559420   -1.359009977012   -0.903800000000
LI    0.840672559420    0.000000022988    1.825460000000
LI    0.840672559420    0.000000022988   -1.825460000000
 S   -2.759327440580    0.000000022988    0.000000000000
 C   -3.926128591760   -1.413320296863    0.000000000000
 H   -4.545750899369   -1.359009644957    0.903801234510
 H   -3.338046167738   -2.340518864300    0.000000000000
 H   -4.545750899369   -1.359009644957   -0.903801234510
 C   -3.926128838431    1.413320139195    0.000000000000
 H   -4.545751136561    1.359009379144   -0.903801234510
 H   -3.338046576236    2.340518809271    0.000000000000
 H   -4.545751136561    1.359009379144    0.903801234510
