20

 H    4.939493305487    1.359010022988   -0.903800000000
 H    3.731783305487    2.340520022988    0.000000000000
 H    4.939493305487    1.359010022988    0.903800000000
 C    4.319863305487    1.413320022988    0.000000000000
 S    3.153063305487    0.000000022988    0.000000000000
 C    4.319863305487   -1.413319977012    0.000000000000
 H    4.939493305487   -1.359009977012    0.903800000000
 H    3.731783305487   -2.340519977012    0.000000000000
 H    4.939493305487   -1.359009977012   -0.903800000000
LI    1.424613305487    0.000000022988    1.825460000000
LI    1.424613305487    0.000000022988   -1.825460000000
 S   -3.475386694513    0.000000022988    0.000000000000
 C   -4.642187845692   -1.413320296863    0.000000000000
 H   -5.261810153302   -1.359009644957    0.903801234510
 H   -4.054105421671   -2.340518864300    0.000000000000
 H   -5.261810153302   -1.359009644957   -0.903801234510
 C   -4.642188092363    1.413320139195    0.000000000000
 H   -5.261810390493    1.359009379144   -0.903801234510
 H   -4.054105830168    2.340518809271    0.000000000000
 H   -5.261810390493    1.359009379144    0.903801234510
