20

 H    5.119167381201    1.359010022988   -0.903800000000
 H    3.911457381201    2.340520022988    0.000000000000
 H    5.119167381201    1.359010022988    0.903800000000
 C    4.499537381201    1.413320022988    0.000000000000
 S    3.332737381201    0.000000022988    0.000000000000
 C    4.499537381201   -1.413319977012    0.000000000000
 H    5.119167381201   -1.359009977012    0.903800000000
 H    3.911457381201   -2.340519977012    0.000000000000
 H    5.119167381201   -1.359009977012   -0.903800000000
LI    1.604287381201    0.000000022988    1.825460000000
LI    1.604287381201    0.000000022988   -1.825460000000
 S   -3.695712618799    0.000000022988    0.000000000000
 C   -4.862513769979   -1.413320296863    0.000000000000
 H   -5.482136077589   -1.359009644957    0.903801234510
 H   -4.274431345958   -2.340518864300    0.000000000000
 H   -5.482136077589   -1.359009644957   -0.903801234510
 C   -4.862514016650    1.413320139195    0.000000000000
 H   -5.482136314780    1.359009379144   -0.903801234510
 H   -4.274431754455    2.340518809271    0.000000000000
 H   -5.482136314780    1.359009379144    0.903801234510
