20

 H    5.164085900129    1.359010022988   -0.903800000000
 H    3.956375900129    2.340520022988    0.000000000000
 H    5.164085900129    1.359010022988    0.903800000000
 C    4.544455900129    1.413320022988    0.000000000000
 S    3.377655900129    0.000000022988    0.000000000000
 C    4.544455900129   -1.413319977012    0.000000000000
 H    5.164085900129   -1.359009977012    0.903800000000
 H    3.956375900129   -2.340519977012    0.000000000000
 H    5.164085900129   -1.359009977012   -0.903800000000
LI    1.649205900129    0.000000022988    1.825460000000
LI    1.649205900129    0.000000022988   -1.825460000000
 S   -3.750794099871    0.000000022988    0.000000000000
 C   -4.917595251051   -1.413320296863    0.000000000000
 H   -5.537217558660   -1.359009644957    0.903801234510
 H   -4.329512827029   -2.340518864300    0.000000000000
 H   -5.537217558660   -1.359009644957   -0.903801234510
 C   -4.917595497722    1.413320139195    0.000000000000
 H   -5.537217795852    1.359009379144   -0.903801234510
 H   -4.329513235527    2.340518809271    0.000000000000
 H   -5.537217795852    1.359009379144    0.903801234510
