20

 H    5.209004419057    1.359010022988   -0.903800000000
 H    4.001294419057    2.340520022988    0.000000000000
 H    5.209004419057    1.359010022988    0.903800000000
 C    4.589374419057    1.413320022988    0.000000000000
 S    3.422574419057    0.000000022988    0.000000000000
 C    4.589374419057   -1.413319977012    0.000000000000
 H    5.209004419057   -1.359009977012    0.903800000000
 H    4.001294419057   -2.340519977012    0.000000000000
 H    5.209004419057   -1.359009977012   -0.903800000000
LI    1.694124419057    0.000000022988    1.825460000000
LI    1.694124419057    0.000000022988   -1.825460000000
 S   -3.805875580943    0.000000022988    0.000000000000
 C   -4.972676732123   -1.413320296863    0.000000000000
 H   -5.592299039732   -1.359009644957    0.903801234510
 H   -4.384594308101   -2.340518864300    0.000000000000
 H   -5.592299039732   -1.359009644957   -0.903801234510
 C   -4.972676978794    1.413320139195    0.000000000000
 H   -5.592299276924    1.359009379144   -0.903801234510
 H   -4.384594716599    2.340518809271    0.000000000000
 H   -5.592299276924    1.359009379144    0.903801234510
