20

 H    5.298841456914    1.359010022988   -0.903800000000
 H    4.091131456914    2.340520022988    0.000000000000
 H    5.298841456914    1.359010022988    0.903800000000
 C    4.679211456914    1.413320022988    0.000000000000
 S    3.512411456914    0.000000022988    0.000000000000
 C    4.679211456914   -1.413319977012    0.000000000000
 H    5.298841456914   -1.359009977012    0.903800000000
 H    4.091131456914   -2.340519977012    0.000000000000
 H    5.298841456914   -1.359009977012   -0.903800000000
LI    1.783961456914    0.000000022988    1.825460000000
LI    1.783961456914    0.000000022988   -1.825460000000
 S   -3.916038543086    0.000000022988    0.000000000000
 C   -5.082839694266   -1.413320296863    0.000000000000
 H   -5.702462001875   -1.359009644957    0.903801234510
 H   -4.494757270245   -2.340518864300    0.000000000000
 H   -5.702462001875   -1.359009644957   -0.903801234510
 C   -5.082839940937    1.413320139195    0.000000000000
 H   -5.702462239067    1.359009379144   -0.903801234510
 H   -4.494757678742    2.340518809271    0.000000000000
 H   -5.702462239067    1.359009379144    0.903801234510
