20

 H    5.433597013698    1.359010022988   -0.903800000000
 H    4.225887013698    2.340520022988    0.000000000000
 H    5.433597013698    1.359010022988    0.903800000000
 C    4.813967013698    1.413320022988    0.000000000000
 S    3.647167013698    0.000000022988    0.000000000000
 C    4.813967013698   -1.413319977012    0.000000000000
 H    5.433597013698   -1.359009977012    0.903800000000
 H    4.225887013698   -2.340519977012    0.000000000000
 H    5.433597013698   -1.359009977012   -0.903800000000
LI    1.918717013698    0.000000022988    1.825460000000
LI    1.918717013698    0.000000022988   -1.825460000000
 S   -4.081282986302    0.000000022988    0.000000000000
 C   -5.248084137481   -1.413320296863    0.000000000000
 H   -5.867706445091   -1.359009644957    0.903801234510
 H   -4.660001713460   -2.340518864300    0.000000000000
 H   -5.867706445091   -1.359009644957   -0.903801234510
 C   -5.248084384152    1.413320139195    0.000000000000
 H   -5.867706682283    1.359009379144   -0.903801234510
 H   -4.660002121957    2.340518809271    0.000000000000
 H   -5.867706682283    1.359009379144    0.903801234510
