20

 H    5.837863684053    1.359010022988   -0.903800000000
 H    4.630153684053    2.340520022988    0.000000000000
 H    5.837863684053    1.359010022988    0.903800000000
 C    5.218233684053    1.413320022988    0.000000000000
 S    4.051433684053    0.000000022988    0.000000000000
 C    5.218233684053   -1.413319977012    0.000000000000
 H    5.837863684053   -1.359009977012    0.903800000000
 H    4.630153684053   -2.340519977012    0.000000000000
 H    5.837863684053   -1.359009977012   -0.903800000000
LI    2.322983684053    0.000000022988    1.825460000000
LI    2.322983684053    0.000000022988   -1.825460000000
 S   -4.577016315947    0.000000022988    0.000000000000
 C   -5.743817467127   -1.413320296863    0.000000000000
 H   -6.363439774736   -1.359009644957    0.903801234510
 H   -5.155735043105   -2.340518864300    0.000000000000
 H   -6.363439774736   -1.359009644957   -0.903801234510
 C   -5.743817713798    1.413320139195    0.000000000000
 H   -6.363440011928    1.359009379144   -0.903801234510
 H   -5.155735451603    2.340518809271    0.000000000000
 H   -6.363440011928    1.359009379144    0.903801234510
