20

 H    6.107374797622    1.359010022988   -0.903800000000
 H    4.899664797622    2.340520022988    0.000000000000
 H    6.107374797622    1.359010022988    0.903800000000
 C    5.487744797622    1.413320022988    0.000000000000
 S    4.320944797622    0.000000022988    0.000000000000
 C    5.487744797622   -1.413319977012    0.000000000000
 H    6.107374797622   -1.359009977012    0.903800000000
 H    4.899664797622   -2.340519977012    0.000000000000
 H    6.107374797622   -1.359009977012   -0.903800000000
LI    2.592494797622    0.000000022988    1.825460000000
LI    2.592494797622    0.000000022988   -1.825460000000
 S   -4.907505202378    0.000000022988    0.000000000000
 C   -6.074306353557   -1.413320296863    0.000000000000
 H   -6.693928661167   -1.359009644957    0.903801234510
 H   -5.486223929536   -2.340518864300    0.000000000000
 H   -6.693928661167   -1.359009644957   -0.903801234510
 C   -6.074306600228    1.413320139195    0.000000000000
 H   -6.693928898359    1.359009379144   -0.903801234510
 H   -5.486224338033    2.340518809271    0.000000000000
 H   -6.693928898359    1.359009379144    0.903801234510
