20

 H    6.152293316551    1.359010022988   -0.903800000000
 H    4.944583316551    2.340520022988    0.000000000000
 H    6.152293316551    1.359010022988    0.903800000000
 C    5.532663316551    1.413320022988    0.000000000000
 S    4.365863316551    0.000000022988    0.000000000000
 C    5.532663316551   -1.413319977012    0.000000000000
 H    6.152293316551   -1.359009977012    0.903800000000
 H    4.944583316551   -2.340519977012    0.000000000000
 H    6.152293316551   -1.359009977012   -0.903800000000
LI    2.637413316551    0.000000022988    1.825460000000
LI    2.637413316551    0.000000022988   -1.825460000000
 S   -4.962586683449    0.000000022988    0.000000000000
 C   -6.129387834629   -1.413320296863    0.000000000000
 H   -6.749010142238   -1.359009644957    0.903801234510
 H   -5.541305410608   -2.340518864300    0.000000000000
 H   -6.749010142238   -1.359009644957   -0.903801234510
 C   -6.129388081300    1.413320139195    0.000000000000
 H   -6.749010379430    1.359009379144   -0.903801234510
 H   -5.541305819105    2.340518809271    0.000000000000
 H   -6.749010379430    1.359009379144    0.903801234510
