20

 H    6.331967392264    1.359010022988   -0.903800000000
 H    5.124257392264    2.340520022988    0.000000000000
 H    6.331967392264    1.359010022988    0.903800000000
 C    5.712337392264    1.413320022988    0.000000000000
 S    4.545537392264    0.000000022988    0.000000000000
 C    5.712337392264   -1.413319977012    0.000000000000
 H    6.331967392264   -1.359009977012    0.903800000000
 H    5.124257392264   -2.340519977012    0.000000000000
 H    6.331967392264   -1.359009977012   -0.903800000000
LI    2.817087392264    0.000000022988    1.825460000000
LI    2.817087392264    0.000000022988   -1.825460000000
 S   -5.182912607736    0.000000022988    0.000000000000
 C   -6.349713758916   -1.413320296863    0.000000000000
 H   -6.969336066525   -1.359009644957    0.903801234510
 H   -5.761631334894   -2.340518864300    0.000000000000
 H   -6.969336066525   -1.359009644957   -0.903801234510
 C   -6.349714005587    1.413320139195    0.000000000000
 H   -6.969336303717    1.359009379144   -0.903801234510
 H   -5.761631743392    2.340518809271    0.000000000000
 H   -6.969336303717    1.359009379144    0.903801234510
