20

 H    6.376885911192    1.359010022988   -0.903800000000
 H    5.169175911192    2.340520022988    0.000000000000
 H    6.376885911192    1.359010022988    0.903800000000
 C    5.757255911192    1.413320022988    0.000000000000
 S    4.590455911192    0.000000022988    0.000000000000
 C    5.757255911192   -1.413319977012    0.000000000000
 H    6.376885911192   -1.359009977012    0.903800000000
 H    5.169175911192   -2.340519977012    0.000000000000
 H    6.376885911192   -1.359009977012   -0.903800000000
LI    2.862005911192    0.000000022988    1.825460000000
LI    2.862005911192    0.000000022988   -1.825460000000
 S   -5.237994088808    0.000000022988    0.000000000000
 C   -6.404795239988   -1.413320296863    0.000000000000
 H   -7.024417547597   -1.359009644957    0.903801234510
 H   -5.816712815966   -2.340518864300    0.000000000000
 H   -7.024417547597   -1.359009644957   -0.903801234510
 C   -6.404795486659    1.413320139195    0.000000000000
 H   -7.024417784789    1.359009379144   -0.903801234510
 H   -5.816713224464    2.340518809271    0.000000000000
 H   -7.024417784789    1.359009379144    0.903801234510
