20

 H    6.556559986905    1.359010022988   -0.903800000000
 H    5.348849986905    2.340520022988    0.000000000000
 H    6.556559986905    1.359010022988    0.903800000000
 C    5.936929986905    1.413320022988    0.000000000000
 S    4.770129986905    0.000000022988    0.000000000000
 C    5.936929986905   -1.413319977012    0.000000000000
 H    6.556559986905   -1.359009977012    0.903800000000
 H    5.348849986905   -2.340519977012    0.000000000000
 H    6.556559986905   -1.359009977012   -0.903800000000
LI    3.041679986905    0.000000022988    1.825460000000
LI    3.041679986905    0.000000022988   -1.825460000000
 S   -5.458320013095    0.000000022988    0.000000000000
 C   -6.625121164275   -1.413320296863    0.000000000000
 H   -7.244743471884   -1.359009644957    0.903801234510
 H   -6.037038740253   -2.340518864300    0.000000000000
 H   -7.244743471884   -1.359009644957   -0.903801234510
 C   -6.625121410946    1.413320139195    0.000000000000
 H   -7.244743709076    1.359009379144   -0.903801234510
 H   -6.037039148751    2.340518809271    0.000000000000
 H   -7.244743709076    1.359009379144    0.903801234510
