20

 H    6.601478505833    1.359010022988   -0.903800000000
 H    5.393768505833    2.340520022988    0.000000000000
 H    6.601478505833    1.359010022988    0.903800000000
 C    5.981848505833    1.413320022988    0.000000000000
 S    4.815048505833    0.000000022988    0.000000000000
 C    5.981848505833   -1.413319977012    0.000000000000
 H    6.601478505833   -1.359009977012    0.903800000000
 H    5.393768505833   -2.340519977012    0.000000000000
 H    6.601478505833   -1.359009977012   -0.903800000000
LI    3.086598505833    0.000000022988    1.825460000000
LI    3.086598505833    0.000000022988   -1.825460000000
 S   -5.513401494167    0.000000022988    0.000000000000
 C   -6.680202645346   -1.413320296863    0.000000000000
 H   -7.299824952956   -1.359009644957    0.903801234510
 H   -6.092120221325   -2.340518864300    0.000000000000
 H   -7.299824952956   -1.359009644957   -0.903801234510
 C   -6.680202892017    1.413320139195    0.000000000000
 H   -7.299825190148    1.359009379144   -0.903801234510
 H   -6.092120629822    2.340518809271    0.000000000000
 H   -7.299825190148    1.359009379144    0.903801234510
