20

 H    6.826071100475    1.359010022988   -0.903800000000
 H    5.618361100475    2.340520022988    0.000000000000
 H    6.826071100475    1.359010022988    0.903800000000
 C    6.206441100475    1.413320022988    0.000000000000
 S    5.039641100475    0.000000022988    0.000000000000
 C    6.206441100475   -1.413319977012    0.000000000000
 H    6.826071100475   -1.359009977012    0.903800000000
 H    5.618361100475   -2.340519977012    0.000000000000
 H    6.826071100475   -1.359009977012   -0.903800000000
LI    3.311191100475    0.000000022988    1.825460000000
LI    3.311191100475    0.000000022988   -1.825460000000
 S   -5.788808899525    0.000000022988    0.000000000000
 C   -6.955610050705   -1.413320296863    0.000000000000
 H   -7.575232358314   -1.359009644957    0.903801234510
 H   -6.367527626683   -2.340518864300    0.000000000000
 H   -7.575232358314   -1.359009644957   -0.903801234510
 C   -6.955610297376    1.413320139195    0.000000000000
 H   -7.575232595506    1.359009379144   -0.903801234510
 H   -6.367528035181    2.340518809271    0.000000000000
 H   -7.575232595506    1.359009379144    0.903801234510
