20

 H    6.870989619403    1.359010022988   -0.903800000000
 H    5.663279619403    2.340520022988    0.000000000000
 H    6.870989619403    1.359010022988    0.903800000000
 C    6.251359619403    1.413320022988    0.000000000000
 S    5.084559619403    0.000000022988    0.000000000000
 C    6.251359619403   -1.413319977012    0.000000000000
 H    6.870989619403   -1.359009977012    0.903800000000
 H    5.663279619403   -2.340519977012    0.000000000000
 H    6.870989619403   -1.359009977012   -0.903800000000
LI    3.356109619403    0.000000022988    1.825460000000
LI    3.356109619403    0.000000022988   -1.825460000000
 S   -5.843890380597    0.000000022988    0.000000000000
 C   -7.010691531777   -1.413320296863    0.000000000000
 H   -7.630313839386   -1.359009644957    0.903801234510
 H   -6.422609107755   -2.340518864300    0.000000000000
 H   -7.630313839386   -1.359009644957   -0.903801234510
 C   -7.010691778448    1.413320139195    0.000000000000
 H   -7.630314076578    1.359009379144   -0.903801234510
 H   -6.422609516253    2.340518809271    0.000000000000
 H   -7.630314076578    1.359009379144    0.903801234510
