20

 H    7.095582214044    1.359010022988   -0.903800000000
 H    5.887872214044    2.340520022988    0.000000000000
 H    7.095582214044    1.359010022988    0.903800000000
 C    6.475952214044    1.413320022988    0.000000000000
 S    5.309152214044    0.000000022988    0.000000000000
 C    6.475952214044   -1.413319977012    0.000000000000
 H    7.095582214044   -1.359009977012    0.903800000000
 H    5.887872214044   -2.340519977012    0.000000000000
 H    7.095582214044   -1.359009977012   -0.903800000000
LI    3.580702214044    0.000000022988    1.825460000000
LI    3.580702214044    0.000000022988   -1.825460000000
 S   -6.119297785956    0.000000022988    0.000000000000
 C   -7.286098937135   -1.413320296863    0.000000000000
 H   -7.905721244745   -1.359009644957    0.903801234510
 H   -6.698016513114   -2.340518864300    0.000000000000
 H   -7.905721244745   -1.359009644957   -0.903801234510
 C   -7.286099183806    1.413320139195    0.000000000000
 H   -7.905721481937    1.359009379144   -0.903801234510
 H   -6.698016921611    2.340518809271    0.000000000000
 H   -7.905721481937    1.359009379144    0.903801234510
