12

 C   -1.324443828115    1.420689244616    0.000000000000
 C   -0.212101828115    0.401211244616    0.000000000000
 O   -0.716432828115   -0.865241755384    0.000000000000
 C    0.298033171885   -1.898980755384    0.000000000000
 O    0.985538171885    0.645704244616    0.000000000000
 H   -0.891873828115    2.427699244616    0.000000000000
 H   -1.956780828115    1.278117244616    0.888615000000
 H   -1.956780828115    1.278117244616   -0.888615000000
 H   -0.256063828115   -2.844104755384    0.000000000000
 H    0.927828171885   -1.812681755384    0.896190000000
 H    0.927828171885   -1.812681755384   -0.896190000000
LI    1.965329939293    0.845724474893    0.000000000000
