12

 C   -1.332924995774    1.418957851105    0.000000000000
 C   -0.220582995774    0.399479851105    0.000000000000
 O   -0.724913995774   -0.866973148895    0.000000000000
 C    0.289552004226   -1.900712148895    0.000000000000
 O    0.977057004226    0.643972851105    0.000000000000
 H   -0.900354995774    2.425967851105    0.000000000000
 H   -1.965261995774    1.276385851105    0.888615000000
 H   -1.965261995774    1.276385851105   -0.888615000000
 H   -0.264544995774   -2.845836148895    0.000000000000
 H    0.919347004226   -1.814413148895    0.896190000000
 H    0.919347004226   -1.814413148895   -0.896190000000
LI    2.054827948374    0.863995104409    0.000000000000
