12

 C   -1.349887331092    1.415495064083    0.000000000000
 C   -0.237545331092    0.396017064083    0.000000000000
 O   -0.741876331092   -0.870435935917    0.000000000000
 C    0.272589668908   -1.904174935917    0.000000000000
 O    0.960094668908    0.640510064083    0.000000000000
 H   -0.917317331092    2.422505064083    0.000000000000
 H   -1.982224331092    1.272923064083    0.888615000000
 H   -1.982224331092    1.272923064083   -0.888615000000
 H   -0.281507331092   -2.849298935917    0.000000000000
 H    0.902384668908   -1.817875935917    0.896190000000
 H    0.902384668908   -1.817875935917   -0.896190000000
LI    2.233823966538    0.900536363443    0.000000000000
