12

 C   -1.358368498751    1.413763670572    0.000000000000
 C   -0.246026498751    0.394285670572    0.000000000000
 O   -0.750357498751   -0.872167329428    0.000000000000
 C    0.264108501249   -1.905906329428    0.000000000000
 O    0.951613501249    0.638778670572    0.000000000000
 H   -0.925798498751    2.420773670572    0.000000000000
 H   -1.990705498751    1.271191670572    0.888615000000
 H   -1.990705498751    1.271191670572   -0.888615000000
 H   -0.289988498751   -2.851030329428    0.000000000000
 H    0.893903501249   -1.819607329428    0.896190000000
 H    0.893903501249   -1.819607329428   -0.896190000000
LI    2.323321975620    0.918806992960    0.000000000000
