12

 C   -1.383812001727    1.408569490039    0.000000000000
 C   -0.271470001727    0.389091490039    0.000000000000
 O   -0.775801001727   -0.877361509961    0.000000000000
 C    0.238664998273   -1.911100509961    0.000000000000
 O    0.926169998273    0.633584490039    0.000000000000
 H   -0.951242001727    2.415579490039    0.000000000000
 H   -2.016149001727    1.265997490039    0.888615000000
 H   -2.016149001727    1.265997490039   -0.888615000000
 H   -0.315432001727   -2.856224509961    0.000000000000
 H    0.868459998273   -1.824801509961    0.896190000000
 H    0.868459998273   -1.824801509961   -0.896190000000
LI    2.591816002866    0.973618881510    0.000000000000
