12

 C   -1.392293169386    1.406838096528    0.000000000000
 C   -0.279951169386    0.387360096528    0.000000000000
 O   -0.784282169386   -0.879092903472    0.000000000000
 C    0.230183830614   -1.912831903472    0.000000000000
 O    0.917688830614    0.631853096528    0.000000000000
 H   -0.959723169386    2.413848096528    0.000000000000
 H   -2.024630169386    1.264266096528    0.888615000000
 H   -2.024630169386    1.264266096528   -0.888615000000
 H   -0.323913169386   -2.857955903472    0.000000000000
 H    0.859978830614   -1.826532903472    0.896190000000
 H    0.859978830614   -1.826532903472   -0.896190000000
LI    2.681314011948    0.991889511027    0.000000000000
