12

 C   -2.087748917411    1.264863828633    0.000000000000
 C   -0.975406917411    0.245385828633    0.000000000000
 O   -1.479737917411   -1.021067171367    0.000000000000
 C   -0.465271917411   -2.054806171367    0.000000000000
 O    0.222233082589    0.489878828633    0.000000000000
 H   -1.655178917411    2.271873828633    0.000000000000
 H   -2.720085917411    1.122291828633    0.888615000000
 H   -2.720085917411    1.122291828633   -0.888615000000
 H   -1.019368917411   -2.999930171367    0.000000000000
 H    0.164523082589   -1.968507171367    0.896190000000
 H    0.164523082589   -1.968507171367   -0.896190000000
LI   10.020150756667    2.490081131402    0.000000000000
