12

 C   -1.434699007680    1.398181128974    0.000000000000
 C   -0.322357007680    0.378703128974    0.000000000000
 O   -0.826688007680   -0.887749871026    0.000000000000
 C    0.187777992320   -1.921488871026    0.000000000000
 O    0.875282992320    0.623196128974    0.000000000000
 H   -1.002129007680    2.405191128974    0.000000000000
 H   -2.067036007680    1.255609128974    0.888615000000
 H   -2.067036007680    1.255609128974   -0.888615000000
 H   -0.366319007680   -2.866612871026    0.000000000000
 H    0.817572992320   -1.835189871026    0.896190000000
 H    0.817572992320   -1.835189871026   -0.896190000000
LI    3.128804057358    1.083242658611    0.000000000000
