12

 C   -1.494067181292    1.386061374397    0.000000000000
 C   -0.381725181292    0.366583374397    0.000000000000
 O   -0.886056181292   -0.899869625603    0.000000000000
 C    0.128409818708   -1.933608625603    0.000000000000
 O    0.815914818708    0.611076374397    0.000000000000
 H   -1.061497181292    2.393071374397    0.000000000000
 H   -2.126404181292    1.243489374397    0.888615000000
 H   -2.126404181292    1.243489374397   -0.888615000000
 H   -0.425687181292   -2.878732625603    0.000000000000
 H    0.758204818708   -1.847309625603    0.896190000000
 H    0.758204818708   -1.847309625603   -0.896190000000
LI    3.755290120931    1.211137065228    0.000000000000
