12

 C   -1.527991851927    1.379135800354    0.000000000000
 C   -0.415649851927    0.359657800354    0.000000000000
 O   -0.919980851927   -0.906795199646    0.000000000000
 C    0.094485148073   -1.940534199646    0.000000000000
 O    0.781990148073    0.604150800354    0.000000000000
 H   -1.095421851927    2.386145800354    0.000000000000
 H   -2.160328851927    1.236563800354    0.888615000000
 H   -2.160328851927    1.236563800354   -0.888615000000
 H   -0.459611851927   -2.885658199646    0.000000000000
 H    0.724280148073   -1.854235199646    0.896190000000
 H    0.724280148073   -1.854235199646   -0.896190000000
LI    4.113282157259    1.284219583295    0.000000000000
