12

 C   -1.536473019586    1.377404406843    0.000000000000
 C   -0.424131019586    0.357926406843    0.000000000000
 O   -0.928462019586   -0.908526593157    0.000000000000
 C    0.086003980414   -1.942265593157    0.000000000000
 O    0.773508980414    0.602419406843    0.000000000000
 H   -1.103903019586    2.384414406843    0.000000000000
 H   -2.168810019586    1.234832406843    0.888615000000
 H   -2.168810019586    1.234832406843   -0.888615000000
 H   -0.468093019586   -2.887389593157    0.000000000000
 H    0.715798980414   -1.855966593157    0.896190000000
 H    0.715798980414   -1.855966593157   -0.896190000000
LI    4.202780166341    1.302490212812    0.000000000000
