12

 C   -1.570397690222    1.370478832799    0.000000000000
 C   -0.458055690222    0.351000832799    0.000000000000
 O   -0.962386690222   -0.915452167201    0.000000000000
 C    0.052079309778   -1.949191167201    0.000000000000
 O    0.739584309778    0.595493832799    0.000000000000
 H   -1.137827690222    2.377488832799    0.000000000000
 H   -2.202734690222    1.227906832799    0.888615000000
 H   -2.202734690222    1.227906832799   -0.888615000000
 H   -0.502017690222   -2.894315167201    0.000000000000
 H    0.681874309778   -1.862892167201    0.896190000000
 H    0.681874309778   -1.862892167201   -0.896190000000
LI    4.560772202669    1.375572730879    0.000000000000
