12

 C   -1.587360025539    1.367016045777    0.000000000000
 C   -0.475018025539    0.347538045777    0.000000000000
 O   -0.979349025539   -0.918914954223    0.000000000000
 C    0.035116974461   -1.952653954223    0.000000000000
 O    0.722621974461    0.592031045777    0.000000000000
 H   -1.154790025539    2.374026045777    0.000000000000
 H   -2.219697025539    1.224444045777    0.888615000000
 H   -2.219697025539    1.224444045777   -0.888615000000
 H   -0.518980025539   -2.897777954223    0.000000000000
 H    0.664911974461   -1.866354954223    0.896190000000
 H    0.664911974461   -1.866354954223   -0.896190000000
LI    4.739768220832    1.412113989913    0.000000000000
