12

 C   -1.612803528516    1.361821865245    0.000000000000
 C   -0.500461528516    0.342343865245    0.000000000000
 O   -1.004792528516   -0.924109134755    0.000000000000
 C    0.009673471484   -1.957848134755    0.000000000000
 O    0.697178471484    0.586836865245    0.000000000000
 H   -1.180233528516    2.368831865245    0.000000000000
 H   -2.245140528516    1.219249865245    0.888615000000
 H   -2.245140528516    1.219249865245   -0.888615000000
 H   -0.544423528516   -2.902972134755    0.000000000000
 H    0.639468471484   -1.871549134755    0.896190000000
 H    0.639468471484   -1.871549134755   -0.896190000000
LI    5.008262248078    1.466925878463    0.000000000000
