12

 C   -1.680652869786    1.347970717157    0.000000000000
 C   -0.568310869786    0.328492717157    0.000000000000
 O   -1.072641869786   -0.937960282843    0.000000000000
 C   -0.058175869786   -1.971699282843    0.000000000000
 O    0.629329130214    0.572985717157    0.000000000000
 H   -1.248082869786    2.354980717157    0.000000000000
 H   -2.312989869786    1.205398717157    0.888615000000
 H   -2.312989869786    1.205398717157   -0.888615000000
 H   -0.612272869786   -2.916823282843    0.000000000000
 H    0.571619130214   -1.885400282843    0.896190000000
 H    0.571619130214   -1.885400282843   -0.896190000000
LI    5.724246320734    1.613090914597    0.000000000000
