12

 C   -1.731539875740    1.337582356092    0.000000000000
 C   -0.619197875740    0.318104356092    0.000000000000
 O   -1.123528875740   -0.948348643908    0.000000000000
 C   -0.109062875740   -1.982087643908    0.000000000000
 O    0.578442124260    0.562597356092    0.000000000000
 H   -1.298969875740    2.344592356092    0.000000000000
 H   -2.363876875740    1.195010356092    0.888615000000
 H   -2.363876875740    1.195010356092   -0.888615000000
 H   -0.663159875740   -2.927211643908    0.000000000000
 H    0.520732124260   -1.895788643908    0.896190000000
 H    0.520732124260   -1.895788643908   -0.896190000000
LI    6.261234375225    1.722714691698    0.000000000000
