12

 C   -1.756983378716    1.332388175559    0.000000000000
 C   -0.644641378716    0.312910175559    0.000000000000
 O   -1.148972378716   -0.953542824441    0.000000000000
 C   -0.134506378716   -1.987281824441    0.000000000000
 O    0.552998621284    0.557403175559    0.000000000000
 H   -1.324413378716    2.339398175559    0.000000000000
 H   -2.389320378716    1.189816175559    0.888615000000
 H   -2.389320378716    1.189816175559   -0.888615000000
 H   -0.688603378716   -2.932405824441    0.000000000000
 H    0.495288621284   -1.900982824441    0.896190000000
 H    0.495288621284   -1.900982824441   -0.896190000000
LI    6.529728402471    1.777526580248    0.000000000000
