12

 C   -1.773945714034    1.328925388537    0.000000000000
 C   -0.661603714034    0.309447388537    0.000000000000
 O   -1.165934714034   -0.957005611463    0.000000000000
 C   -0.151468714034   -1.990744611463    0.000000000000
 O    0.536036285966    0.553940388537    0.000000000000
 H   -1.341375714034    2.335935388537    0.000000000000
 H   -2.406282714034    1.186353388537    0.888615000000
 H   -2.406282714034    1.186353388537   -0.888615000000
 H   -0.705565714034   -2.935868611463    0.000000000000
 H    0.478326285966   -1.904445611463    0.896190000000
 H    0.478326285966   -1.904445611463   -0.896190000000
LI    6.708724420635    1.814067839282    0.000000000000
