12

 C   -1.782426881693    1.327193995026    0.000000000000
 C   -0.670084881693    0.307715995026    0.000000000000
 O   -1.174415881693   -0.958737004974    0.000000000000
 C   -0.159949881693   -1.992476004974    0.000000000000
 O    0.527555118307    0.552208995026    0.000000000000
 H   -1.349856881693    2.334203995026    0.000000000000
 H   -2.414763881693    1.184621995026    0.888615000000
 H   -2.414763881693    1.184621995026   -0.888615000000
 H   -0.714046881693   -2.937600004974    0.000000000000
 H    0.469845118307   -1.906177004974    0.896190000000
 H    0.469845118307   -1.906177004974   -0.896190000000
LI    6.798222429717    1.832338468798    0.000000000000
