12

 C   -1.790908049351    1.325462601515    0.000000000000
 C   -0.678566049351    0.305984601515    0.000000000000
 O   -1.182897049351   -0.960468398485    0.000000000000
 C   -0.168431049351   -1.994207398485    0.000000000000
 O    0.519073950649    0.550477601515    0.000000000000
 H   -1.358338049351    2.332472601515    0.000000000000
 H   -2.423245049351    1.182890601515    0.888615000000
 H   -2.423245049351    1.182890601515   -0.888615000000
 H   -0.722528049351   -2.939331398485    0.000000000000
 H    0.461363950649   -1.907908398485    0.896190000000
 H    0.461363950649   -1.907908398485   -0.896190000000
LI    6.887720438799    1.850609098315    0.000000000000
