12

 C   -1.816351552328    1.320268420983    0.000000000000
 C   -0.704009552328    0.300790420983    0.000000000000
 O   -1.208340552328   -0.965662579017    0.000000000000
 C   -0.193874552328   -1.999401579017    0.000000000000
 O    0.493630447672    0.545283420983    0.000000000000
 H   -1.383781552328    2.327278420983    0.000000000000
 H   -2.448688552328    1.177696420983    0.888615000000
 H   -2.448688552328    1.177696420983   -0.888615000000
 H   -0.747971552328   -2.944525579017    0.000000000000
 H    0.435920447672   -1.913102579017    0.896190000000
 H    0.435920447672   -1.913102579017   -0.896190000000
LI    7.156214466045    1.905420986866    0.000000000000
