12

 C   -1.850276222963    1.313342846939    0.000000000000
 C   -0.737934222963    0.293864846939    0.000000000000
 O   -1.242265222963   -0.972588153061    0.000000000000
 C   -0.227799222963   -2.006327153061    0.000000000000
 O    0.459705777037    0.538357846939    0.000000000000
 H   -1.417706222963    2.320352846939    0.000000000000
 H   -2.482613222963    1.170770846939    0.888615000000
 H   -2.482613222963    1.170770846939   -0.888615000000
 H   -0.781896222963   -2.951451153061    0.000000000000
 H    0.401995777037   -1.920028153061    0.896190000000
 H    0.401995777037   -1.920028153061   -0.896190000000
LI    7.514206502372    1.978503504933    0.000000000000
