12

 C   -1.858757390622    1.311611453428    0.000000000000
 C   -0.746415390622    0.292133453428    0.000000000000
 O   -1.250746390622   -0.974319546572    0.000000000000
 C   -0.236280390622   -2.008058546572    0.000000000000
 O    0.451224609378    0.536626453428    0.000000000000
 H   -1.426187390622    2.318621453428    0.000000000000
 H   -2.491094390622    1.169039453428    0.888615000000
 H   -2.491094390622    1.169039453428   -0.888615000000
 H   -0.790377390622   -2.953182546572    0.000000000000
 H    0.393514609378   -1.921759546572    0.896190000000
 H    0.393514609378   -1.921759546572   -0.896190000000
LI    7.603704511454    1.996774134449    0.000000000000
