12

 C   -1.875719725940    1.308148666406    0.000000000000
 C   -0.763377725940    0.288670666406    0.000000000000
 O   -1.267708725940   -0.977782333594    0.000000000000
 C   -0.253242725940   -2.011521333594    0.000000000000
 O    0.434262274060    0.533163666406    0.000000000000
 H   -1.443149725940    2.315158666406    0.000000000000
 H   -2.508056725940    1.165576666406    0.888615000000
 H   -2.508056725940    1.165576666406   -0.888615000000
 H   -0.807339725940   -2.956645333594    0.000000000000
 H    0.376552274060   -1.925222333594    0.896190000000
 H    0.376552274060   -1.925222333594   -0.896190000000
LI    7.782700529618    2.033315393483    0.000000000000
