12

 C   -1.884200893599    1.306417272895    0.000000000000
 C   -0.771858893599    0.286939272895    0.000000000000
 O   -1.276189893599   -0.979513727105    0.000000000000
 C   -0.261723893599   -2.013252727105    0.000000000000
 O    0.425781106401    0.531432272895    0.000000000000
 H   -1.451630893599    2.313427272895    0.000000000000
 H   -2.516537893599    1.163845272895    0.888615000000
 H   -2.516537893599    1.163845272895   -0.888615000000
 H   -0.815820893599   -2.958376727105    0.000000000000
 H    0.368071106401   -1.926953727105    0.896190000000
 H    0.368071106401   -1.926953727105   -0.896190000000
LI    7.872198538700    2.051586023000    0.000000000000
