12

 C   -1.901163228916    1.302954485874    0.000000000000
 C   -0.788821228916    0.283476485874    0.000000000000
 O   -1.293152228916   -0.982976514126    0.000000000000
 C   -0.278686228916   -2.016715514126    0.000000000000
 O    0.408818771084    0.527969485874    0.000000000000
 H   -1.468593228916    2.309964485874    0.000000000000
 H   -2.533500228916    1.160382485874    0.888615000000
 H   -2.533500228916    1.160382485874   -0.888615000000
 H   -0.832783228916   -2.961839514126    0.000000000000
 H    0.351108771084   -1.930416514126    0.896190000000
 H    0.351108771084   -1.930416514126   -0.896190000000
LI    8.051194556864    2.088127282033    0.000000000000
