12

 C   -1.918125564234    1.299491698852    0.000000000000
 C   -0.805783564234    0.280013698852    0.000000000000
 O   -1.310114564234   -0.986439301148    0.000000000000
 C   -0.295648564234   -2.020178301148    0.000000000000
 O    0.391856435766    0.524506698852    0.000000000000
 H   -1.485555564234    2.306501698852    0.000000000000
 H   -2.550462564234    1.156919698852    0.888615000000
 H   -2.550462564234    1.156919698852   -0.888615000000
 H   -0.849745564234   -2.965302301148    0.000000000000
 H    0.334146435766   -1.933879301148    0.896190000000
 H    0.334146435766   -1.933879301148   -0.896190000000
LI    8.230190575028    2.124668541067    0.000000000000
