12

 C   -1.926606731893    1.297760305341    0.000000000000
 C   -0.814264731893    0.278282305341    0.000000000000
 O   -1.318595731893   -0.988170694659    0.000000000000
 C   -0.304129731893   -2.021909694659    0.000000000000
 O    0.383375268107    0.522775305341    0.000000000000
 H   -1.494036731893    2.304770305341    0.000000000000
 H   -2.558943731893    1.155188305341    0.888615000000
 H   -2.558943731893    1.155188305341   -0.888615000000
 H   -0.858226731893   -2.967033694659    0.000000000000
 H    0.325665268107   -1.935610694659    0.896190000000
 H    0.325665268107   -1.935610694659   -0.896190000000
LI    8.319688584110    2.142939170584    0.000000000000
