12

 C   -1.977493737846    1.287371944275    0.000000000000
 C   -0.865151737846    0.267893944275    0.000000000000
 O   -1.369482737846   -0.998559055725    0.000000000000
 C   -0.355016737846   -2.032298055725    0.000000000000
 O    0.332488262154    0.512386944275    0.000000000000
 H   -1.544923737846    2.294381944275    0.000000000000
 H   -2.609830737846    1.144799944275    0.888615000000
 H   -2.609830737846    1.144799944275   -0.888615000000
 H   -0.909113737846   -2.977422055725    0.000000000000
 H    0.274778262154   -1.945999055725    0.896190000000
 H    0.274778262154   -1.945999055725   -0.896190000000
LI    8.856676638601    2.252562947684    0.000000000000
