12

 C   -2.011418408481    1.280446370232    0.000000000000
 C   -0.899076408481    0.260968370232    0.000000000000
 O   -1.403407408481   -1.005484629768    0.000000000000
 C   -0.388941408481   -2.039223629768    0.000000000000
 O    0.298563591519    0.505461370232    0.000000000000
 H   -1.578848408481    2.287456370232    0.000000000000
 H   -2.643755408481    1.137874370232    0.888615000000
 H   -2.643755408481    1.137874370232   -0.888615000000
 H   -0.943038408481   -2.984347629768    0.000000000000
 H    0.240853591519   -1.952924629768    0.896190000000
 H    0.240853591519   -1.952924629768   -0.896190000000
LI    9.214668674929    2.325645465751    0.000000000000
