12

 C   -2.019899576140    1.278714976721    0.000000000000
 C   -0.907557576140    0.259236976721    0.000000000000
 O   -1.411888576140   -1.007216023279    0.000000000000
 C   -0.397422576140   -2.040955023279    0.000000000000
 O    0.290082423860    0.503729976721    0.000000000000
 H   -1.587329576140    2.285724976721    0.000000000000
 H   -2.652236576140    1.136142976721    0.888615000000
 H   -2.652236576140    1.136142976721   -0.888615000000
 H   -0.951519576140   -2.986079023279    0.000000000000
 H    0.232372423860   -1.954656023279    0.896190000000
 H    0.232372423860   -1.954656023279   -0.896190000000
LI    9.304166684011    2.343916095268    0.000000000000
