12

 C   -2.028380743799    1.276983583210    0.000000000000
 C   -0.916038743799    0.257505583210    0.000000000000
 O   -1.420369743799   -1.008947416790    0.000000000000
 C   -0.405903743799   -2.042686416790    0.000000000000
 O    0.281601256201    0.501998583210    0.000000000000
 H   -1.595810743799    2.283993583210    0.000000000000
 H   -2.660717743799    1.134411583210    0.888615000000
 H   -2.660717743799    1.134411583210   -0.888615000000
 H   -0.960000743799   -2.987810416790    0.000000000000
 H    0.223891256201   -1.956387416790    0.896190000000
 H    0.223891256201   -1.956387416790   -0.896190000000
LI    9.393664693093    2.362186724785    0.000000000000
