12

 C   -2.036861911458    1.275252189699    0.000000000000
 C   -0.924519911458    0.255774189699    0.000000000000
 O   -1.428850911458   -1.010678810301    0.000000000000
 C   -0.414384911458   -2.044417810301    0.000000000000
 O    0.273120088542    0.500267189699    0.000000000000
 H   -1.604291911458    2.282262189699    0.000000000000
 H   -2.669198911458    1.132680189699    0.888615000000
 H   -2.669198911458    1.132680189699   -0.888615000000
 H   -0.968481911458   -2.989541810301    0.000000000000
 H    0.215410088542   -1.958118810301    0.896190000000
 H    0.215410088542   -1.958118810301   -0.896190000000
LI    9.483162702175    2.380457354302    0.000000000000
