12

 C   -2.053824246775    1.271789402677    0.000000000000
 C   -0.941482246775    0.252311402677    0.000000000000
 O   -1.445813246775   -1.014141597323    0.000000000000
 C   -0.431347246775   -2.047880597323    0.000000000000
 O    0.256157753225    0.496804402677    0.000000000000
 H   -1.621254246775    2.278799402677    0.000000000000
 H   -2.686161246775    1.129217402677    0.888615000000
 H   -2.686161246775    1.129217402677   -0.888615000000
 H   -0.985444246775   -2.993004597323    0.000000000000
 H    0.198447753225   -1.961581597323    0.896190000000
 H    0.198447753225   -1.961581597323   -0.896190000000
LI    9.662158720339    2.416998613335    0.000000000000
