12

 C   -2.062305414434    1.270058009166    0.000000000000
 C   -0.949963414434    0.250580009166    0.000000000000
 O   -1.454294414434   -1.015872990834    0.000000000000
 C   -0.439828414434   -2.049611990834    0.000000000000
 O    0.247676585566    0.495073009166    0.000000000000
 H   -1.629735414434    2.277068009166    0.000000000000
 H   -2.694642414434    1.127486009166    0.888615000000
 H   -2.694642414434    1.127486009166   -0.888615000000
 H   -0.993925414434   -2.994735990834    0.000000000000
 H    0.189966585566   -1.963312990834    0.896190000000
 H    0.189966585566   -1.963312990834   -0.896190000000
LI    9.751656729421    2.435269242852    0.000000000000
