12

 C   -2.070786582093    1.268326615655    0.000000000000
 C   -0.958444582093    0.248848615655    0.000000000000
 O   -1.462775582093   -1.017604384345    0.000000000000
 C   -0.448309582093   -2.051343384345    0.000000000000
 O    0.239195417907    0.493341615655    0.000000000000
 H   -1.638216582093    2.275336615655    0.000000000000
 H   -2.703123582093    1.125754615655    0.888615000000
 H   -2.703123582093    1.125754615655   -0.888615000000
 H   -1.002406582093   -2.996467384345    0.000000000000
 H    0.181485417907   -1.965044384345    0.896190000000
 H    0.181485417907   -1.965044384345   -0.896190000000
LI    9.841154738503    2.453539872369    0.000000000000
