25

 N   -4.688987880265    2.753034761045    0.054878030127
 C   -3.500037880265    3.428304761045    0.037058030127
 H   -3.570687880265    4.516714761045    0.036478030127
 C   -4.792627880265    1.362524761045    0.058458030127
 O   -5.846747880265    0.752694761045    0.074448030127
 N   -3.538267880265    0.733294761045    0.041058030127
 H   -3.572537880265   -0.285095238955    0.042808030127
 C   -2.296987880265    1.331084761045    0.022638030127
 O   -1.269507880265    0.609734761045    0.008638030127
 C   -2.298517880265    2.771394761045    0.020828030127
 H   -1.355987880265    3.313034761045    0.006308030127
 H   -5.574667880265    3.251314761045    0.067358030127
LI    0.346422119735   -0.166375238955   -0.001781969873
 O    1.247829035964   -0.599309166635   -0.007594511299
 C    2.275303686651   -1.320665510742   -0.021594765271
 N    3.516545091131   -0.722878797007   -0.042605314689
 H    3.550789151288    0.295509282038   -0.046200548079
 C    4.770906081126   -1.352110262696   -0.060442687400
 O    5.824985599370   -0.742287887336   -0.078822236636
 N    4.667301261249   -2.742612237879   -0.054278662046
 H    5.552974583093   -3.240896792451   -0.066965649452
 C    3.478390682484   -3.417883343689   -0.033783007406
 H    3.549064083051   -4.506288567667   -0.031368702187
 C    2.276867992893   -2.760962690464   -0.017231507028
 H    1.334372383353   -3.302593285545   -0.000590191893
