25

 N   -4.732690684244    2.774024054434    0.055098931208
 C   -3.543740684244    3.449294054434    0.037278931208
 H   -3.614390684244    4.537704054434    0.036698931208
 C   -4.836330684244    1.383514054434    0.058678931208
 O   -5.890450684244    0.773684054434    0.074668931208
 N   -3.581970684244    0.754284054434    0.041278931208
 H   -3.616240684244   -0.264105945566    0.043028931208
 C   -2.340690684244    1.352074054434    0.022858931208
 O   -1.313210684244    0.630724054434    0.008858931208
 C   -2.342220684244    2.792384054434    0.021048931208
 H   -1.399690684244    3.334024054434    0.006528931208
 H   -5.618370684244    3.272304054434    0.067578931208
LI    0.302719315756   -0.145385945566   -0.001561068792
 O    1.294266923608   -0.621613266013   -0.007954864361
 C    2.321741574295   -1.342969610121   -0.021955118333
 N    3.562988358052   -0.745181969547   -0.042618639075
 H    3.597236271579    0.273206819391   -0.045967651615
 C    4.817350275919   -1.374413266142   -0.060396627968
 O    5.871434778222   -0.764589979687   -0.078457342309
 N    4.713739987320   -2.764916322991   -0.054578218334
 H    5.599413806907   -3.263200734826   -0.067236030970
 C    3.524823866082   -3.440188401308   -0.034439216214
 H    3.595493383693   -4.528594394015   -0.032270271625
 C    2.323300549699   -2.783267785318   -0.017931797433
 H    1.380800460946   -3.324899244138   -0.001574706680
