25

 N   -4.820096209862    2.816002690584    0.055544232480
 C   -3.631146209862    3.491272690584    0.037724232480
 H   -3.701796209862    4.579682690584    0.037144232480
 C   -4.923736209862    1.425492690584    0.059124232480
 O   -5.977856209862    0.815662690584    0.075114232480
 N   -3.669376209862    0.796262690584    0.041724232480
 H   -3.703646209862   -0.222127309416    0.043474232480
 C   -2.428096209862    1.394052690584    0.023304232480
 O   -1.400616209862    0.672702690584    0.009304232480
 C   -2.429626209862    2.834362690584    0.021494232480
 H   -1.487096209862    3.376002690584    0.006974232480
 H   -5.705776209862    3.314282690584    0.068024232480
LI    0.215313790138   -0.103407309416   -0.001115767520
 O    1.387142781237   -0.666221415399   -0.008672071374
 C    2.414617431924   -1.387577759507   -0.022672325346
 N    3.655874500661   -0.789788552826   -0.042661727181
 H    3.690129782813    0.228601448856   -0.045532444526
 C    4.910238192810   -1.419019561048   -0.060324360311
 O    5.964332225729   -0.809194720033   -0.077765723382
 N    4.806617444808   -2.809524485711   -0.055177325014
 H    5.692292217455   -3.307808639972   -0.067778464273
 C    3.617690726138   -3.484798212348   -0.035731136573
 H    3.688352817244   -4.573205532671   -0.034038816227
 C    2.416166213079   -2.827877638925   -0.019309348206
 H    1.473657557991   -3.369510583681   -0.003504376285
