25

 N   -4.863798933604    2.836992031636    0.055768566319
 C   -3.674848933604    3.512262031636    0.037948566319
 H   -3.745498933604    4.600672031636    0.037368566319
 C   -4.967438933604    1.446482031636    0.059348566319
 O   -6.021558933604    0.836652031636    0.075338566319
 N   -3.713078933604    0.817252031636    0.041948566319
 H   -3.747348933604   -0.201137968364    0.043698566319
 C   -2.471798933604    1.415042031636    0.023528566319
 O   -1.444318933604    0.693692031636    0.009528566319
 C   -2.473328933604    2.855352031636    0.021718566319
 H   -1.530798933604    3.396992031636    0.007198566319
 H   -5.749478933604    3.335272031636    0.068248566319
LI    0.171611066396   -0.082417968364   -0.000891433681
 O    1.433580749117   -0.688525467115   -0.009028991678
 C    2.461055399804   -1.409881811223   -0.023029245650
 N    3.702317386318   -0.812091955416   -0.042691179176
 H    3.736576192331    0.206298556170   -0.045329553926
 C    4.956681926952   -1.441322842659   -0.060297775663
 O    6.010780517566   -0.831497349057   -0.077438274999
 N    4.853056176125   -2.831828563463   -0.055476875515
 H    5.738731405151   -3.330112601988   -0.068050484385
 C    3.664124390070   -3.507102976067   -0.036367236796
 H    3.734782929005   -4.595510862371   -0.034906447371
 C    2.462599305657   -2.850182409140   -0.019987045275
 H    1.520086553476   -3.391815984283   -0.004450277454
