25

 N   -4.907501632622    2.857981386943    0.055993980136
 C   -3.718551632622    3.533251386943    0.038173980136
 H   -3.789201632622    4.621661386943    0.037593980136
 C   -5.011141632622    1.467471386943    0.059573980136
 O   -6.065261632622    0.857641386943    0.075563980136
 N   -3.756781632622    0.838241386943    0.042173980136
 H   -3.791051632622   -0.180148613057    0.043923980136
 C   -2.515501632622    1.436031386943    0.023753980136
 O   -1.488021632622    0.714681386943    0.009753980136
 C   -2.517031632622    2.876341386943    0.021943980136
 H   -1.574501632622    3.417981386943    0.007423980136
 H   -5.793181632622    3.356261386943    0.068473980136
LI    0.127908367378   -0.061428613057   -0.000666019864
 O    1.480018741722   -0.710829504576   -0.009384832003
 C    2.507493392409   -1.432185848684   -0.023385085975
 N    3.748760154465   -0.834395426908   -0.042725705069
 H    3.783022382772    0.183995534654   -0.045136103455
 C    5.003125519113   -1.463626207588   -0.060277317966
 O    6.057228536003   -0.853800138857   -0.077122607464
 N    4.899494909090   -2.854132638901   -0.055776424193
 H    5.785170581732   -3.352416569831   -0.068323020012
 C    3.710558202079   -3.529407651654   -0.036997010665
 H    3.781213290819   -4.617816043134   -0.035763401202
 C    2.509032563376   -2.872487082089   -0.020657634267
 H    1.566515831898   -3.414121217654   -0.005384030410
