25

 N   -5.038609590442    2.920949531169    0.056676405480
 C   -3.849659590442    3.596219531169    0.038856405480
 H   -3.920309590442    4.684629531169    0.038276405480
 C   -5.142249590442    1.530439531169    0.060256405480
 O   -6.196369590442    0.920609531169    0.076246405480
 N   -3.887889590442    0.901209531169    0.042856405480
 H   -3.922159590442   -0.117180468831    0.044606405480
 C   -2.646609590442    1.498999531169    0.024436405480
 O   -1.619129590442    0.777649531169    0.010436405480
 C   -2.648139590442    2.939309531169    0.022626405480
 H   -1.705609590442    3.480949531169    0.008106405480
 H   -5.924289590442    3.419229531169    0.069156405480
LI   -0.003199590442    0.001539531169    0.000016405480
 O    1.619332858771   -0.777741538654   -0.010446169087
 C    2.646807509458   -1.499097882762   -0.024446423059
 N    3.888087797011   -0.901306220299   -0.042858335621
 H    3.922359720058    0.117085761476   -0.044609805728
 C    5.142455495864   -1.530536760597   -0.060251027477
 O    6.196571051291   -0.920709392599   -0.076243061380
 N    5.038811117428   -2.921044851970   -0.056675059777
 H    5.924488048946   -3.419328505137   -0.069143578707
 C    3.849860472319   -3.596321193244   -0.038850107897
 H    3.920505784984   -4.684730765459   -0.038273124949
 C    2.648333266773   -2.939400565860   -0.022628700762
 H    1.705805261009   -3.481035997592   -0.008115729248
