25

 N   -5.126014788018    2.962928352669    0.057136231561
 C   -3.937064788018    3.638198352669    0.039316231561
 H   -4.007714788018    4.726608352669    0.038736231561
 C   -5.229654788018    1.572418352669    0.060716231561
 O   -6.283774788018    0.962588352669    0.076706231561
 N   -3.975294788018    0.943188352669    0.043316231561
 H   -4.009564788018   -0.075201647331    0.045066231561
 C   -2.734014788018    1.540978352669    0.024896231561
 O   -1.706534788018    0.819628352669    0.010896231561
 C   -2.735544788018    2.981288352669    0.023086231561
 H   -1.793014788018    3.522928352669    0.008566231561
 H   -6.011694788018    3.461208352669    0.069616231561
LI   -0.090604788018    0.043518352669    0.000476231561
 O    1.712209044441   -0.822349502689   -0.011148851292
 C    2.739683695128   -1.543705846797   -0.025149105264
 N    3.980972380238   -0.945913700293   -0.042969663491
 H    4.015250324007    0.072478714015   -0.044301560627
 C    5.235341528640   -1.575144139884   -0.060261162282
 O    6.289464870630   -0.965316225688   -0.075709885193
 N    5.131688597094   -2.965652983578   -0.057274141917
 H    6.017366312142   -3.463936485603   -0.069692945264
 C    3.942729297660   -3.640929856337   -0.040056943981
 H    4.013368537281   -4.729339964056   -0.039898068434
 C    2.741201121712   -2.984009153273   -0.023910653725
 H    1.798666112973   -3.525645159744   -0.009882015363
