25

 N   -5.213419906626    3.004907215613    0.057599717670
 C   -4.024469906626    3.680177215613    0.039779717670
 H   -4.095119906626    4.768587215613    0.039199717670
 C   -5.317059906626    1.614397215613    0.061179717670
 O   -6.371179906626    1.004567215613    0.077169717670
 N   -4.062699906626    0.985167215613    0.043779717670
 H   -4.096969906626   -0.033222784387    0.045529717670
 C   -2.821419906626    1.582957215613    0.025359717670
 O   -1.793939906626    0.861607215613    0.011359717670
 C   -2.822949906626    3.023267215613    0.023549717670
 H   -1.880419906626    3.564907215613    0.009029717670
 H   -6.099099906626    3.503187215613    0.070079717670
LI   -0.178009906626    0.085497215613    0.000939717670
 O    1.805085309079   -0.866957425281   -0.011847873468
 C    2.832559959766   -1.588313769389   -0.025848127440
 N    4.073856587880   -0.990521381526   -0.043098186748
 H    4.108140227653    0.027871289986   -0.044025308029
 C    5.328227107604   -1.619751762569   -0.060292061261
 O    6.382357816019   -1.009923528721   -0.075216634182
 N    5.224566082342   -3.010261107355   -0.057873217858
 H    6.110244539972   -3.508544482537   -0.070244058888
 C    4.035598596584   -3.685538260987   -0.041242340100
 H    4.106232089331   -4.773948725806   -0.041486826585
 C    2.834069504579   -3.028617456253   -0.025168517484
 H    1.891527869569   -3.570253832411   -0.011607131297
