25

 N   -5.475634841580    3.130844013389    0.059010297837
 C   -4.286684841580    3.806114013389    0.041190297837
 H   -4.357334841580    4.894524013389    0.040610297837
 C   -5.579274841580    1.740334013389    0.062590297837
 O   -6.633394841580    1.130504013389    0.078580297837
 N   -4.324914841580    1.111104013389    0.045190297837
 H   -4.359184841580    0.092714013389    0.046940297837
 C   -3.083634841580    1.708894013389    0.026770297837
 O   -2.056154841580    0.987544013389    0.012770297837
 C   -3.085164841580    3.149204013389    0.024960297837
 H   -2.142634841580    3.690844013389    0.010440297837
 H   -6.361314841580    3.629124013389    0.071490297837
LI   -0.440224841580    0.211434013389    0.002350297837
 O    2.083714523862   -1.000780984113   -0.013924818157
 C    3.111189174549   -1.722137328221   -0.027925072129
 N    4.352507208290   -1.124345442769   -0.043578292104
 H    4.386806204530   -0.105952887130   -0.043372436380
 C    5.606881424855   -1.753575861512   -0.060498914010
 O    6.661031992234   -1.143747815230   -0.073956378998
 N    5.503198568750   -3.144085435673   -0.059670411531
 H    6.388879035356   -3.642368554855   -0.071907004630
 C    4.314209019243   -3.819362164822   -0.044680657270
 H    4.384827011087   -4.907772796297   -0.046054163747
 C    3.112677468226   -3.162440925888   -0.028809672801
 H    2.170117963482   -3.704077372009   -0.016556136514
