25

 N   -5.737849238833    3.256781056626    0.060447692462
 C   -4.548899238833    3.932051056626    0.042627692462
 H   -4.619549238833    5.020461056626    0.042047692462
 C   -5.841489238833    1.866271056626    0.064027692462
 O   -6.895609238833    1.256441056626    0.080017692462
 N   -4.587129238833    1.237041056626    0.046627692462
 H   -4.621399238833    0.218651056626    0.048377692462
 C   -3.345849238833    1.834831056626    0.028207692462
 O   -2.318369238833    1.113481056626    0.014207692462
 C   -3.347379238833    3.275141056626    0.026397692462
 H   -2.404849238833    3.816781056626    0.011877692462
 H   -6.623529238833    3.755061056626    0.072927692462
LI   -0.702439238833    0.337371056626    0.003787692462
 O    2.362344276347   -1.134604297483   -0.015974948388
 C    3.389818927034   -1.855960641591   -0.029975202360
 N    4.631155268911   -1.258170705062   -0.044184376127
 H    4.665467407748   -0.239779314641   -0.042953951649
 C    5.885532649029   -1.887401413654   -0.060857891458
 O    6.939700211121   -1.277574910159   -0.072988627940
 N    5.781831095984   -3.277909706725   -0.061467559596
 H    6.667513291124   -3.776192720060   -0.073582749823
 C    4.592822672291   -3.953184515973   -0.047961898518
 H    4.663427388319   -5.041594241424   -0.050356395753
 C    3.391289030841   -3.296262694543   -0.032274343167
 H    2.448714225623   -3.837897979820   -0.021203516201
