25

 N   -5.781551593301    3.277770582641    0.060689597172
 C   -4.592601593301    3.953040582641    0.042869597172
 H   -4.663251593301    5.041450582641    0.042289597172
 C   -5.885191593301    1.887260582641    0.064269597172
 O   -6.939311593301    1.277430582641    0.080259597172
 N   -4.630831593301    1.258030582641    0.046869597172
 H   -4.665101593301    0.239640582641    0.048619597172
 C   -3.389551593301    1.855820582641    0.028449597172
 O   -2.362071593301    1.134470582641    0.014449597172
 C   -3.391081593301    3.296130582641    0.026639597172
 H   -2.448551593301    3.837770582641    0.012119597172
 H   -6.667231593301    3.776050582641    0.073169597172
LI   -0.746141593301    0.358360582641    0.004029597172
 O    2.408782613502   -1.156908164237   -0.016314297820
 C    3.436257264189   -1.878264508345   -0.030314551792
 N    4.677596397651   -1.280475007979   -0.044296378854
 H    4.711910541201   -0.262083892768   -0.042904649031
 C    5.931974260293   -1.909705784335   -0.060930990393
 O    6.986144414565   -1.299879642555   -0.072852850317
 N    5.828269854081   -3.300213746910   -0.061767080287
 H    6.713952313723   -3.798496754454   -0.073863157140
 C    4.639258552203   -3.975488120977   -0.048495070811
 H    4.709861242320   -5.063897612345   -0.051050310116
 C    3.437724593175   -3.318566191412   -0.032836393997
 H    2.495147453458   -3.860201188005   -0.021951769626
