25

 N   -5.825253935982    3.298760113287    0.060932128202
 C   -4.636303935982    3.974030113287    0.043112128202
 H   -4.706953935982    5.062440113287    0.042532128202
 C   -5.928893935982    1.908250113287    0.064512128202
 O   -6.983013935982    1.298420113287    0.080502128202
 N   -4.674533935982    1.279020113287    0.047112128202
 H   -4.708803935982    0.260630113287    0.048862128202
 C   -3.433253935982    1.876810113287    0.028692128202
 O   -2.405773935982    1.155460113287    0.014692128202
 C   -3.434783935982    3.317120113287    0.026882128202
 H   -2.492253935982    3.858760113287    0.012362128202
 H   -6.710933935982    3.797040113287    0.073412128202
LI   -0.789843935982    0.379350113287    0.004272128202
 O    2.455220962444   -1.179212026359   -0.016653020933
 C    3.482695613131   -1.900568370466   -0.030653274905
 N    4.724037470233   -1.302779333776   -0.044411324133
 H    4.758353569910   -0.284388513833   -0.042860821115
 C    5.978415803696   -1.932010182711   -0.061007642585
 O    7.032588487294   -1.322184428537   -0.072723904869
 N    5.874708613130   -3.322517785759   -0.062066599910
 H    6.760391331095   -3.820800790492   -0.074143863418
 C    4.685694503041   -3.997791696165   -0.049024574195
 H    4.756295216105   -5.086200932831   -0.051738032270
 C    3.484160234485   -3.340869655799   -0.033394322573
 H    2.541580816671   -3.882504340098   -0.022692977819
