25

 N   -5.956360896971    3.361728730599    0.061663335155
 C   -4.767410896971    4.036998730599    0.043843335155
 H   -4.838060896971    5.125408730599    0.043263335155
 C   -6.060000896971    1.971218730599    0.065243335155
 O   -7.114120896971    1.361388730599    0.081233335155
 N   -4.805640896971    1.341988730599    0.047843335155
 H   -4.839910896971    0.323598730599    0.049593335155
 C   -3.564360896971    1.939778730599    0.029423335155
 O   -2.536880896971    1.218428730599    0.015423335155
 C   -3.565890896971    3.380088730599    0.027613335155
 H   -2.623360896971    3.921728730599    0.013093335155
 H   -6.842040896971    3.860008730599    0.074143335155
LI   -0.920950896971    0.442318730599    0.005003335155
 O    2.594536076324   -1.246123587351   -0.017665576408
 C    3.622010727011   -1.967479931459   -0.031665830380
 N    4.863360368418   -1.369692436814   -0.044773138512
 H    4.897682059990   -0.351302612931   -0.042760926440
 C    6.117740047749   -1.998923529955   -0.061258101493
 O    7.171919961636   -1.389099080881   -0.072376490246
 N    6.014024895771   -3.389429894603   -0.062965152605
 H    6.899708353499   -3.887712907445   -0.074987707265
 C    4.825002759217   -4.064702257631   -0.050591914703
 H    4.895597819197   -5.153110616684   -0.053765469628
 C    3.623467607831   -3.407779870456   -0.035044322855
 H    2.680881676737   -3.949413487973   -0.024875951344
