25

 N   -6.000063196100    3.382718277410    0.061908229603
 C   -4.811113196100    4.057988277410    0.044088229603
 H   -4.881763196100    5.146398277410    0.043508229603
 C   -6.103703196100    1.992208277410    0.065488229603
 O   -7.157823196100    1.382378277410    0.081478229603
 N   -4.849343196100    1.362978277410    0.048088229603
 H   -4.883613196100    0.344588277410    0.049838229603
 C   -3.608063196100    1.960768277410    0.029668229603
 O   -2.580583196100    1.239418277410    0.015668229603
 C   -3.609593196100    3.401078277410    0.027858229603
 H   -2.667063196100    3.942718277410    0.013338229603
 H   -6.885743196100    3.880998277410    0.074388229603
LI   -0.964653196100    0.463308277410    0.005248229603
 O    2.640974468818   -1.268427433307   -0.018001936102
 C    3.668449119505   -1.989783777415   -0.032002190074
 N    4.909801233423   -1.391996842773   -0.044899187529
 H    4.944124701519   -0.373607384531   -0.042737757352
 C    6.164181340316   -2.021228025384   -0.061348161932
 O    7.218363551179   -1.411404054727   -0.072273326069
 N    6.060463658412   -3.411733928415   -0.063264668190
 H    6.946147351583   -3.910016949059   -0.075269541676
 C    4.871438972285   -4.087005728009   -0.051107573425
 H    4.942032235858   -5.175413759852   -0.054429825429
 C    3.669903541077   -3.430083220921   -0.035586696071
 H    2.727315540418   -3.971716443189   -0.025590574296
