25

 N   -6.043765485170    3.403707827727    0.062153681575
 C   -4.854815485170    4.078977827727    0.044333681575
 H   -4.925465485170    5.167387827727    0.043753681575
 C   -6.147405485170    2.013197827727    0.065733681575
 O   -7.201525485170    1.403367827727    0.081723681575
 N   -4.893045485170    1.383967827727    0.048333681575
 H   -4.927315485170    0.365577827727    0.050083681575
 C   -3.651765485170    1.981757827727    0.029913681575
 O   -2.624285485170    1.260407827727    0.015913681575
 C   -3.653295485170    3.422067827727    0.028103681575
 H   -2.710765485170    3.963707827727    0.013583681575
 H   -6.929445485170    3.901987827727    0.074633681575
LI   -1.008355485170    0.484297827727    0.005493681575
 O    2.687412871371   -1.290731275758   -0.018337738273
 C    3.714887522057   -2.012087619866   -0.032337992245
 N    4.956242050476   -1.414301266195   -0.045027855887
 H    4.990567253601   -0.395912188953   -0.042719461625
 C    6.210622574937   -2.043532541961   -0.061441385339
 O    7.264807029097   -1.433709069532   -0.072176243624
 N    6.106902421900   -3.434037961039   -0.063564182821
 H    6.992586345222   -3.932320991842   -0.075551642211
 C    4.917875245946   -4.109309175465   -0.051619966228
 H    4.988466754856   -5.197716864234   -0.055088669170
 C    3.716339541767   -3.452386546538   -0.036125399820
 H    2.773749519729   -3.994019355424   -0.026298925862
