25

 N   -6.174872295049    3.466676497816    0.062893259137
 C   -4.985922295049    4.141946497816    0.045073259137
 H   -5.056572295049    5.230356497816    0.044493259137
 C   -6.278512295049    2.076166497816    0.066473259137
 O   -7.332632295049    1.466336497816    0.082463259137
 N   -5.024152295049    1.446936497816    0.049073259137
 H   -5.058422295049    0.428546497816    0.050823259137
 C   -3.782872295049    2.044726497816    0.030653259137
 O   -2.755392295049    1.323376497816    0.016653259137
 C   -3.784402295049    3.485036497816    0.028843259137
 H   -2.841872295049    4.026676497816    0.014323259137
 H   -7.060552295049    3.964956497816    0.075373259137
LI   -1.139462295049    0.547266497816    0.006233259137
 O    2.826728136361   -1.357642783973   -0.019341923139
 C    3.854202787048   -2.078999128081   -0.033342177111
 N    5.095564228239   -1.481214632118   -0.045428996802
 H    5.129894399851   -0.462826782088   -0.042692735118
 C    6.349945948419   -2.110446207549   -0.061739332747
 O    7.404136826396   -1.500624338422   -0.071920139519
 N    6.246218717256   -3.500950052049   -0.064462721203
 H    7.131903300817   -3.999233126408   -0.076399481600
 C    5.057184412465   -4.176219391938   -0.053138272552
 H    5.127770895438   -5.264625964318   -0.057033348993
 C    3.855647928397   -3.519296387168   -0.037720307085
 H    2.913052116979   -4.060927856356   -0.028387741408
