25

 N   -6.218574546846    3.487666060303    0.063140819517
 C   -5.029624546846    4.162936060303    0.045320819517
 H   -5.100274546846    5.251346060303    0.044740819517
 C   -6.322214546846    2.097156060303    0.066720819517
 O   -7.376334546846    1.487326060303    0.082710819517
 N   -5.067854546846    1.467926060303    0.049320819517
 H   -5.102124546846    0.449536060303    0.051070819517
 C   -3.826574546846    2.065716060303    0.030900819517
 O   -2.799094546846    1.344366060303    0.016900819517
 C   -3.828104546846    3.506026060303    0.029090819517
 H   -2.885574546846    4.047666060303    0.014570819517
 H   -7.104254546846    3.985946060303    0.075620819517
LI   -1.183164546846    0.568256060303    0.006480819517
 O    2.873166576186   -1.379946614254   -0.019675616902
 C    3.900641226873   -2.101302958362   -0.033675870874
 N    5.142004867535   -1.503519116480   -0.045567570822
 H    5.176336620339   -0.485131701132   -0.042692869164
 C    6.396386968232   -2.132750797939   -0.061844517671
 O    7.450579890497   -1.522929496273   -0.071846056586
 N    6.292657483945   -3.523254080183   -0.064762232226
 H    7.178342278004   -4.021537173092   -0.076682588539
 C    5.103620910806   -4.198522759075   -0.053638314504
 H    5.174205793907   -5.286928932763   -0.057671347563
 C    3.902084179126   -3.541599625967   -0.038245133872
 H    2.959486524985   -4.083230618271   -0.029072376234
