25

 N   -6.262276790011    3.508655625413    0.063388878341
 C   -5.073326790011    4.183925625413    0.045568878341
 H   -5.143976790011    5.272335625413    0.044988878341
 C   -6.365916790011    2.118145625413    0.066968878341
 O   -7.420036790011    1.508315625413    0.082958878341
 N   -5.111556790011    1.488915625413    0.049568878341
 H   -5.145826790011    0.470525625413    0.051318878341
 C   -3.870276790011    2.086705625413    0.031148878341
 O   -2.842796790011    1.365355625413    0.017148878341
 C   -3.871806790011    3.527015625413    0.029338878341
 H   -2.929276790011    4.068655625413    0.014818878341
 H   -7.147956790011    4.006935625413    0.075868878341
LI   -1.226866790011    0.589245625413    0.006728878341
 O    2.919605024645   -1.402250441912   -0.020008812220
 C    3.947079675331   -2.123606786020   -0.034009066192
 N    5.188445465649   -1.525823614050   -0.045708486617
 H    5.222778764000   -0.507436645044   -0.042697360153
 C    6.442827938279   -2.155055404333   -0.061952530391
 O    7.497022858722   -1.545234685159   -0.071777410918
 N    6.339096251391   -3.545558107256   -0.065061742395
 H    7.224781251386   -4.043841220575   -0.076965933400
 C    5.150057461215   -4.220826108718   -0.054135436618
 H    5.220640780316   -5.309231871593   -0.058304418170
 C    3.948520487788   -3.563902845918   -0.038766680037
 H    3.005921032325   -4.105533347518   -0.029751404237
