25

 N   -6.305979024797    3.529645192992    0.063637424807
 C   -5.117029024797    4.204915192992    0.045817424807
 H   -5.187679024797    5.293325192992    0.045237424807
 C   -6.409619024797    2.139135192992    0.067217424807
 O   -7.463739024797    1.529305192992    0.083207424807
 N   -5.155259024797    1.509905192992    0.049817424807
 H   -5.189529024797    0.491515192992    0.051567424807
 C   -3.913979024797    2.107695192992    0.031397424807
 O   -2.886499024797    1.386345192992    0.017397424807
 C   -3.915509024797    3.548005192992    0.029587424807
 H   -2.972979024797    4.089645192992    0.015067424807
 H   -7.191659024797    4.027925192992    0.076117424807
LI   -1.270569024797    0.610235192992    0.006977424807
 O    2.966043481481   -1.424554267101   -0.020341519897
 C    3.993518132168   -2.145910611208   -0.034341773869
 N    5.234886023790   -1.548128124093   -0.045851693439
 H    5.269220833088   -0.529741612449   -0.042706113664
 C    6.489268860018   -2.177360025840   -0.062063309625
 O    7.543465733882   -1.567539903363   -0.071714084681
 N    6.385535019577   -3.567862133290   -0.065361251728
 H    7.271220221080   -4.066145268796   -0.077249511026
 C    5.196494062170   -4.243129441808   -0.054629702171
 H    5.267075852094   -5.331534782395   -0.058932667610
 C    3.994956852684   -3.586206048063   -0.039285016676
 H    3.052355636089   -4.127836045881   -0.030424946925
