25

 N   -6.349681251450    3.550634762896    0.063886448423
 C   -5.160731251450    4.225904762896    0.046066448423
 H   -5.231381251450    5.314314762896    0.045486448423
 C   -6.453321251450    2.160124762896    0.067466448423
 O   -7.507441251450    1.550294762896    0.083456448423
 N   -5.198961251450    1.530894762896    0.050066448423
 H   -5.233231251450    0.512504762896    0.051816448423
 C   -3.957681251450    2.128684762896    0.031646448423
 O   -2.930201251450    1.407334762896    0.017646448423
 C   -3.959211251450    3.568994762896    0.029836448423
 H   -3.016681251450    4.110634762896    0.015316448423
 H   -7.235361251450    4.048914762896    0.076366448423
LI   -1.314271251450    0.631224762896    0.007226448423
 O    3.012481946451   -1.446858089965   -0.020673750424
 C    4.039956597138   -2.168214434073   -0.034674004396
 N    5.281326543121   -1.570432645905   -0.045997141992
 H    5.315662829772   -0.552046602033   -0.042719037982
 C    6.535709734858   -2.199664661611   -0.062176795847
 O    7.589908518685   -1.589845149247   -0.071655963421
 N    6.431973788487   -3.590166158310   -0.065660760243
 H    7.317659187195   -4.088449317694   -0.077533316410
 C    5.242930712202   -4.265432759240   -0.055121172625
 H    5.313511006764   -5.353837666687   -0.059556199615
 C    4.041393272179   -3.608509233390   -0.039800212845
 H    3.098790333474   -4.150138715065   -0.031093122320
