25

 N   -6.437085681293    3.592613909127    0.064385886617
 C   -5.248135681293    4.267883909127    0.046565886617
 H   -5.318785681293    5.356293909127    0.045985886617
 C   -6.540725681293    2.202103909127    0.067965886617
 O   -7.594845681293    1.592273909127    0.083955886617
 N   -5.286365681293    1.572873909127    0.050565886617
 H   -5.320635681293    0.554483909127    0.052315886617
 C   -4.045085681293    2.170663909127    0.032145886617
 O   -3.017605681293    1.449313909127    0.018145886617
 C   -4.046615681293    3.610973909127    0.030335886617
 H   -3.104085681293    4.152613909127    0.015815886617
 H   -7.322765681293    4.090893909127    0.076865886617
LI   -1.401675681293    0.673203909127    0.007725886617
 O    3.105358899854   -1.491465729270   -0.021336820515
 C    4.132833550541   -2.212822073378   -0.035337074487
 N    5.374207469809   -1.615041722192   -0.046294574086
 H    5.408546614232   -0.596656642789   -0.042757045154
 C    6.628591349218   -2.244273972742   -0.062411659572
 O    7.682793827583   -1.634455717875   -0.071554894196
 N    6.524851328417   -3.634774205390   -0.066259774888
 H    7.410537109108   -4.133057417298   -0.078101591121
 C    5.335804153891   -4.310039350520   -0.056095965394
 H    5.406381555307   -5.398443361461   -0.060789511592
 C    4.134266268706   -3.653115557335   -0.040821450238
 H    3.191659998386   -4.194743972320   -0.032413826641
