25

 N   -6.917809554798    3.823499327921    0.067162903064
 C   -5.728859554798    4.498769327921    0.049342903064
 H   -5.799509554798    5.587179327921    0.048762903064
 C   -7.021449554798    2.432989327921    0.070742903064
 O   -8.075569554798    1.823159327921    0.086732903064
 N   -5.767089554798    1.803759327921    0.053342903064
 H   -5.801359554798    0.785369327921    0.055092903064
 C   -4.525809554798    2.401549327921    0.034922903064
 O   -3.498329554798    1.680199327921    0.020922903064
 C   -4.527339554798    3.841859327921    0.033112903064
 H   -3.584809554798    4.383499327921    0.018592903064
 H   -7.803489554798    4.321779327921    0.079642903064
LI   -1.882399554798    0.904089327921    0.010502903064
 O    3.616182634202   -1.736807630923   -0.024953599637
 C    4.643657284889   -2.458163975031   -0.038953853609
 N    5.885050223830   -1.860392233514   -0.048071895661
 H    5.919403057529   -0.842012985653   -0.043229247333
 C    7.139437396945   -2.489625901757   -0.063874211127
 O    8.193657571401   -1.879815241453   -0.071327428483
 N    7.035677843677   -3.880118400318   -0.069554303714
 H    7.921365464578   -4.378401992528   -0.081241472613
 C    5.846611047721   -4.555374802821   -0.061280965002
 H    5.917174579497   -5.643773327551   -0.067275074480
 C    4.645071046121   -3.898449489374   -0.046240103736
 H    3.702448808847   -4.440071407384   -0.039339043818
