25

 N   -7.136320173837    3.928447287287    0.068440100137
 C   -5.947370173837    4.603717287287    0.050620100137
 H   -6.018020173837    5.692127287287    0.050040100137
 C   -7.239960173837    2.537937287287    0.072020100137
 O   -8.294080173837    1.928107287287    0.088010100137
 N   -5.985600173837    1.908707287287    0.054620100137
 H   -6.019870173837    0.890317287287    0.056370100137
 C   -4.744320173837    2.506497287287    0.036200100137
 O   -3.716840173837    1.785147287287    0.022200100137
 C   -4.745850173837    3.946807287287    0.034390100137
 H   -3.803320173837    4.488447287287    0.019870100137
 H   -8.022000173837    4.426727287287    0.080920100137
LI   -2.100910173837    1.009037287287    0.011780100137
 O    3.848375473278   -1.848326635396   -0.026582673277
 C    4.875850123964   -2.569682979504   -0.040582927249
 N    6.117250364400   -1.971915415873   -0.048949851227
 H    6.151608458055   -0.953539019114   -0.043574274567
 C    7.371638802896   -2.601149776335   -0.064623634504
 O    8.425865776152   -1.991342825610   -0.071386755570
 N    7.267871736847   -3.991638457233   -0.071051791144
 H    8.153560070087   -4.489922260411   -0.082675811673
 C    6.078797406571   -4.666890609194   -0.063550401141
 H    6.149355603590   -5.755286425472   -0.070075578695
 C    4.877256599821   -4.009964590850   -0.048604949110
 H    3.934628223447   -4.551583313512   -0.042319074772
