25

 N   -7.223724386943    3.970426475244    0.068953294667
 C   -6.034774386943    4.645696475244    0.051133294667
 H   -6.105424386943    5.734106475244    0.050553294667
 C   -7.327364386943    2.579916475244    0.072533294667
 O   -8.381484386943    1.970086475244    0.088523294667
 N   -6.073004386943    1.950686475244    0.055133294667
 H   -6.107274386943    0.932296475244    0.056883294667
 C   -4.831724386943    2.548476475244    0.036713294667
 O   -3.804244386943    1.827126475244    0.022713294667
 C   -4.833254386943    3.988786475244    0.034903294667
 H   -3.890724386943    4.530426475244    0.020383294667
 H   -8.109404386943    4.468706475244    0.081433294667
LI   -2.188314386943    1.051016475244    0.012293294667
 O    3.941252643417   -1.892934232976   -0.027231987032
 C    4.968727294104   -2.614290577084   -0.041232241004
 N    6.210130255598   -2.016524712725   -0.049311913036
 H    6.244490310265   -0.998149478345   -0.043732527251
 C    7.464519165821   -2.645759355286   -0.064936541425
 O    8.518748673680   -2.035953916491   -0.071435747231
 N    7.360749297620   -4.036246475084   -0.071650782124
 H    8.246437897290   -4.534530367478   -0.083250652636
 C    6.171672159222   -4.711496897170   -0.064444610386
 H    6.242228366445   -5.799891605874   -0.071172885670
 C    4.970131053609   -4.054570596356   -0.049535645911
 H    4.027500387815   -4.596188013871   -0.043485038563
