25

 N   -7.311128581823    4.012405664911    0.069467738673
 C   -6.122178581823    4.687675664911    0.051647738673
 H   -6.192828581823    5.776085664911    0.051067738673
 C   -7.414768581823    2.621895664911    0.073047738673
 O   -8.468888581823    2.012065664911    0.089037738673
 N   -6.160408581823    1.992665664911    0.055647738673
 H   -6.194678581823    0.974275664911    0.057397738673
 C   -4.919128581823    2.590455664911    0.037227738673
 O   -3.891648581823    1.869105664911    0.023227738673
 C   -4.920658581823    4.030765664911    0.035417738673
 H   -3.978128581823    4.572405664911    0.020897738673
 H   -8.196808581823    4.510685664911    0.081947738673
LI   -2.275718581823    1.092995664911    0.012807738673
 O    4.034129831783   -1.937541828845   -0.027880051311
 C    5.061604482470   -2.658898172952   -0.041880305283
 N    6.303010059602   -2.061134019843   -0.049679845110
 H    6.337371999729   -1.042759957413   -0.043901701740
 C    7.557399423361   -2.690368946766   -0.065256536946
 O    8.611631368108   -2.080565032127   -0.071498368804
 N    7.453626860284   -4.080854490284   -0.072249770948
 H    8.339315716587   -4.579138474230   -0.083826090004
 C    6.264547022395   -4.756103169777   -0.065331500289
 H    6.335101315994   -5.844496760112   -0.072257839409
 C    5.063005630152   -4.099176586623   -0.050458118980
 H    4.120372762787   -4.640792687035   -0.044636947391
