25

 N   -7.398532759388    4.054384855881    0.069983386277
 C   -6.209582759388    4.729654855881    0.052163386277
 H   -6.280232759388    5.818064855881    0.051583386277
 C   -7.502172759388    2.663874855881    0.073563386277
 O   -8.556292759388    2.054044855881    0.089553386277
 N   -6.247812759388    2.034644855881    0.056163386277
 H   -6.282082759388    1.016254855881    0.057913386277
 C   -5.006532759388    2.632434855881    0.037743386277
 O   -3.979052759388    1.911084855881    0.023743386277
 C   -5.008062759388    4.072744855881    0.035933386277
 H   -4.065532759388    4.614384855881    0.021413386277
 H   -8.284212759388    4.552664855881    0.082463386277
LI   -2.363122759388    1.134974855881    0.013323386277
 O    4.127007037464   -1.982149423410   -0.028526911993
 C    5.154481688151   -2.703505767518   -0.042527165965
 N    6.395889780749   -2.105743335231   -0.050053431909
 H    6.430253534538   -1.087370452577   -0.044081397015
 C    7.650279580757   -2.734978548363   -0.065583360795
 O    8.704513869532   -2.125176167853   -0.071574119836
 N    7.546504424769   -4.125462502930   -0.072848757694
 H    8.432193528384   -4.623746580515   -0.084402101876
 C    6.357421990617   -4.800709429597   -0.066211339594
 H    6.427974442989   -5.889101892552   -0.073330893487
 C    5.155880323351   -4.143782564478   -0.051372670271
 H    4.213245337910   -4.685397337877   -0.045775317313
