25

 N   -7.573341065942    4.138343240282    0.071018119730
 C   -6.384391065942    4.813613240282    0.053198119730
 H   -6.455041065942    5.902023240282    0.052618119730
 C   -7.676981065942    2.747833240282    0.074598119730
 O   -8.731101065942    2.138003240282    0.090588119730
 N   -6.422621065942    2.118603240282    0.057198119730
 H   -6.456891065942    1.100213240282    0.058948119730
 C   -5.181341065942    2.716393240282    0.038778119730
 O   -4.153861065942    1.995043240282    0.024778119730
 C   -5.182871065942    4.156703240282    0.036968119730
 H   -4.240341065942    4.698343240282    0.022448119730
 H   -8.459021065942    4.636623240282    0.083498119730
LI   -2.537931065942    1.218933240282    0.014358119730
 O    4.312761497402   -2.071364610081   -0.029817195111
 C    5.340236148089   -2.792720954189   -0.043817449083
 N    6.581648990520   -2.194961983693   -0.050816759014
 H    6.616016170118   -1.176591477836   -0.044470841652
 C    7.836039614508   -2.824197773282   -0.066256514556
 O    8.890278330718   -2.214398482900   -0.071763128022
 N    7.732259558938   -4.214678520932   -0.074046725245
 H    8.617949130978   -4.712962791146   -0.085555766773
 C    6.543172221945   -4.889921920114   -0.067950877190
 H    6.613721195106   -5.978312107663   -0.075443008604
 C    5.341630037149   -4.232994493051   -0.053179143191
 H    4.398991049931   -4.774606590019   -0.048013381392
