25

 N   -7.791851365921    4.243291222173    0.072317571936
 C   -6.602901365921    4.918561222173    0.054497571936
 H   -6.673551365921    6.006971222173    0.053917571936
 C   -7.895491365921    2.852781222173    0.075897571936
 O   -8.949611365921    2.242951222173    0.091887571936
 N   -6.641131365921    2.223551222173    0.058497571936
 H   -6.675401365921    1.205161222173    0.060247571936
 C   -5.399851365921    2.821341222173    0.040077571936
 O   -4.372371365921    2.099991222173    0.026077571936
 C   -5.401381365921    4.261651222173    0.038267571936
 H   -4.458851365921    4.803291222173    0.023747571936
 H   -8.677531365921    4.741571222173    0.084797571936
LI   -2.756441365921    1.323881222173    0.015657571936
 O    4.544954655538   -2.182883592029   -0.031424013617
 C    5.572429306225   -2.904239936137   -0.045424267589
 N    6.813847604224   -2.306485311566   -0.051799273281
 H    6.848218720657   -1.288117795145   -0.045010403506
 C    8.068239175024   -2.935721825963   -0.067132197124
 O    9.122482978799   -2.325926421311   -0.072065225395
 N    7.964453485774   -4.326198530640   -0.075544174249
 H    8.850143598336   -4.824483049635   -0.087000728717
 C    6.775360516702   -5.001437499285   -0.070089944234
 H    6.845905489334   -6.089824818125   -0.078023482110
 C    5.573817740583   -4.344509375394   -0.055397510901
 H    4.631174152965   -4.886118101150   -0.050743071188
