25

 N   -7.879255462241    4.285270414502    0.072839112068
 C   -6.690305462241    4.960540414502    0.055019112068
 H   -6.760955462241    6.048950414502    0.054439112068
 C   -7.982895462241    2.894760414502    0.076419112068
 O   -9.037015462241    2.284930414502    0.092409112068
 N   -6.728535462241    2.265530414502    0.059019112068
 H   -6.762805462241    1.247140414502    0.060769112068
 C   -5.487255462241    2.863320414502    0.040599112068
 O   -4.459775462241    2.141970414502    0.026599112068
 C   -5.488785462241    4.303630414502    0.038789112068
 H   -4.546255462241    4.845270414502    0.024269112068
 H   -8.764935462241    4.783550414502    0.085319112068
LI   -2.843845462241    1.365860414502    0.016179112068
 O    4.637831942464   -2.227491185236   -0.032064981771
 C    5.665306593150   -2.948847529344   -0.046065235743
 N    6.906726936292   -2.351094643843   -0.052200544267
 H    6.941099529135   -1.332728325203   -0.045241606050
 C    8.161118862147   -2.980331448586   -0.067492450836
 O    9.215364573791   -2.370537600589   -0.072205255137
 N    8.057331059168   -4.370806530795   -0.076143150806
 H    8.943021375098   -4.869091151234   -0.087579553222
 C    6.868235978554   -5.046043725929   -0.070935265476
 H    6.938779450199   -6.134429893515   -0.079038278255
 C    5.666692981687   -4.389115325543   -0.056273279044
 H    4.724047668308   -4.930722699218   -0.051815157838
