25

 N   -7.966659545976    4.327249606243    0.073361606195
 C   -6.777709545976    5.002519606243    0.055541606195
 H   -6.848359545976    6.090929606243    0.054961606195
 C   -8.070299545976    2.936739606243    0.076941606195
 O   -9.124419545976    2.326909606243    0.092931606195
 N   -6.815939545976    2.307509606243    0.059541606195
 H   -6.850209545976    1.289119606243    0.061291606195
 C   -5.574659545976    2.905299606243    0.041121606195
 O   -4.547179545976    2.183949606243    0.027121606195
 C   -5.576189545976    4.345609606243    0.039311606195
 H   -4.633659545976    4.887249606243    0.024791606195
 H   -8.852339545976    4.825529606243    0.085841606195
LI   -2.931249545976    1.407839606243    0.016701606195
 O    4.730709241975   -2.272098779031   -0.032704995929
 C    5.758183892662   -2.993455123139   -0.046705249901
 N    6.999606208034   -2.395703975056   -0.052606297304
 H    7.033980224982   -1.377338853845   -0.045481147586
 C    8.253998476352   -3.024941070027   -0.067858116820
 O    9.308246028224   -2.415148778101   -0.072355691559
 N    8.150208634002   -4.415414528930   -0.076742125711
 H    9.035899146459   -4.913699251689   -0.088158833089
 C    6.961111517001   -5.090649951937   -0.071774998265
 H    7.031653540455   -6.179034967660   -0.080043642476
 C    5.759568307762   -4.433721276527   -0.057142768222
 H    4.816921329487   -4.975327297836   -0.052876513269
