25

 N   -8.097765649235    4.390218392316    0.074147066332
 C   -6.908815649235    5.065488392316    0.056327066332
 H   -6.979465649235    6.153898392316    0.055747066332
 C   -8.201405649235    2.999708392316    0.077727066332
 O   -9.255525649235    2.389878392316    0.093717066332
 N   -6.947045649235    2.370478392316    0.060327066332
 H   -6.981315649235    1.352088392316    0.062077066332
 C   -5.705765649235    2.968268392316    0.041907066332
 O   -4.678285649235    2.246918392316    0.027907066332
 C   -5.707295649235    4.408578392316    0.040097066332
 H   -4.764765649235    4.950218392316    0.025577066332
 H   -8.983445649235    4.888498392316    0.086627066332
LI   -3.062355649235    1.470808392316    0.017487066332
 O    4.870025213585   -2.339010171262   -0.033663298220
 C    5.897499864272   -3.060366515370   -0.047663552192
 N    7.138925008527   -2.462617967718   -0.053223002797
 H    7.173301068737   -1.444254640083   -0.045855485419
 C    8.393317768175   -3.091855497352   -0.068416367844
 O    9.447567960262   -2.482065535978   -0.072600097362
 N    8.289524998850   -4.482326522491   -0.077640585089
 H    9.175215793929   -4.980611400081   -0.089028573377
 C    7.100424960717   -5.157559292600   -0.073024527950
 H    7.170964905671   -6.245942581355   -0.081534693989
 C    5.898881447771   -4.500630207650   -0.058435688298
 H    4.956232080260   -5.042234202121   -0.054449210477
