25

 N   -8.141467677967    4.411207987173    0.074409329518
 C   -6.952517677967    5.086477987173    0.056589329518
 H   -7.023167677967    6.174887987173    0.056009329518
 C   -8.245107677967    3.020697987173    0.077989329518
 O   -9.299227677967    2.410867987173    0.093979329518
 N   -6.990747677967    2.391467987173    0.060589329518
 H   -7.025017677967    1.373077987173    0.062339329518
 C   -5.749467677967    2.989257987173    0.042169329518
 O   -4.721987677967    2.267907987173    0.028169329518
 C   -5.750997677967    4.429567987173    0.040359329518
 H   -4.808467677967    4.971207987173    0.025839329518
 H   -9.027147677967    4.909487987173    0.086889329518
LI   -3.106057677967    1.491797987173    0.017749329518
 O    4.916463876475   -2.361313969172   -0.033982289176
 C    5.943938527162   -3.082670313280   -0.047982543148
 N    7.185364581417   -2.484922630379   -0.053430653251
 H    7.219741299061   -1.466559899522   -0.045984138240
 C    8.439757499149   -3.114160304625   -0.068604965572
 O    9.494008540719   -2.504371118643   -0.072686399968
 N    8.335963787802   -4.504630519407   -0.077940070781
 H    9.221654673986   -5.002915448905   -0.089318698326
 C    7.146862809936   -5.179862407187   -0.073438441953
 H    7.217402085939   -6.268245120916   -0.082027329938
 C    5.945319199529   -4.522933186571   -0.058863745015
 H    5.002669063137   -5.064536506354   -0.054968458123
