25

 N   -8.185169703963    4.432197581747    0.074671808167
 C   -6.996219703963    5.107467581747    0.056851808167
 H   -7.066869703963    6.195877581747    0.056271808167
 C   -8.288809703963    3.041687581747    0.078251808167
 O   -9.342929703963    2.431857581747    0.094241808167
 N   -7.034449703963    2.412457581747    0.060851808167
 H   -7.068719703963    1.394067581747    0.062601808167
 C   -5.793169703963    3.010247581747    0.042431808167
 O   -4.765689703963    2.288897581747    0.028431808167
 C   -5.794699703963    4.450557581747    0.040621808167
 H   -4.852169703963    4.992197581747    0.026101808167
 H   -9.070849703963    4.930477581747    0.087151808167
LI   -3.149759703963    1.512787581747    0.018011808167
 O    4.962902542102   -2.383617767367   -0.034301064670
 C    5.990377192789   -3.104974111475   -0.048301318642
 N    7.231804141182   -2.507227292088   -0.053639315990
 H    7.266181504877   -1.488865157317   -0.046114674449
 C    8.486197214257   -3.136465110771   -0.068794785679
 O    9.540449090592   -2.526676699257   -0.072775052956
 N    8.382402577079   -4.526934515866   -0.078239556098
 H    9.268093552874   -5.025219497398   -0.089608926119
 C    7.193300675830   -5.202165522519   -0.073851093785
 H    7.263839294380   -6.290547661695   -0.082517835656
 C    5.991756969778   -4.545236166678   -0.059290383608
 H    5.049106077755   -5.086838812416   -0.055485282089
