25

 N   -8.359977781796    4.516155956826    0.075723807661
 C   -7.171027781796    5.191425956826    0.057903807661
 H   -7.241677781796    6.279835956826    0.057323807661
 C   -8.463617781796    3.125645956826    0.079303807661
 O   -9.517737781796    2.515815956826    0.095293807661
 N   -7.209257781796    2.496415956826    0.061903807661
 H   -7.243527781796    1.478025956826    0.063653807661
 C   -5.967977781796    3.094205956826    0.043483807661
 O   -4.940497781796    2.372855956826    0.029483807661
 C   -5.969507781796    4.534515956826    0.041673807661
 H   -5.026977781796    5.076155956826    0.027153807661
 H   -9.245657781796    5.014435956826    0.088203807661
LI   -3.324567781796    1.596745956826    0.019063807661
 O    5.148657230761   -2.472832963360   -0.035574081747
 C    6.176131881447   -3.194189307467   -0.049574335719
 N    7.417562254763   -2.596445927546   -0.054483762195
 H    7.451942093821   -1.578086168555   -0.046655043645
 C    8.671955923011   -3.225684321839   -0.069565894295
 O    9.726210997656   -2.615898996824   -0.073152408072
 N    8.568157737335   -4.616150497290   -0.079437493753
 H    9.453849057267   -5.114435687951   -0.090770832457
 C    7.379052298872   -5.291377993744   -0.075489487888
 H    7.449588397542   -6.379757841146   -0.084459245627
 C    6.177508227565   -4.634448101615   -0.060983215682
 H    5.234854439724   -5.176048059544   -0.057529125524
