25

 N   -8.491083814302    4.579124734300    0.076514903465
 C   -7.302133814302    5.254394734300    0.058694903465
 H   -7.372783814302    6.342804734300    0.058114903465
 C   -8.594723814302    3.188614734300    0.080094903465
 O   -9.648843814302    2.578784734300    0.096084903465
 N   -7.340363814302    2.559384734300    0.062694903465
 H   -7.374633814302    1.540994734300    0.064444903465
 C   -6.099083814302    3.157174734300    0.044274903465
 O   -5.071603814302    2.435824734300    0.030274903465
 C   -6.100613814302    4.597484734300    0.042464903465
 H   -5.158083814302    5.139124734300    0.027944903465
 H   -9.376763814302    5.077404734300    0.088994903465
LI   -3.455673814302    1.659714734300    0.019854903465
 O    5.287973273124   -2.539744364190   -0.036526748371
 C    6.315447923811   -3.261100708298   -0.050527002343
 N    7.556880715787   -2.663359889854   -0.055126945121
 H    7.591262303652   -1.645001901641   -0.047078643554
 C    8.811274804486   -3.292598713116   -0.070156117977
 O    9.865532138582   -2.682815688377   -0.073458290687
 N    8.707474110691   -4.683062478923   -0.080335943355
 H    9.593165674546   -5.181347827137   -0.091643262758
 C    7.518366173993   -5.358287360664   -0.076706004121
 H    7.588900491571   -6.446665498143   -0.085894578616
 C    6.316821845857   -4.701357071390   -0.062239043158
 H    5.374166011560   -5.242955024703   -0.059038428716
