25

 N   -8.578487824449    4.621103917238    0.077043251666
 C   -7.389537824449    5.296373917238    0.059223251666
 H   -7.460187824449    6.384783917238    0.058643251666
 C   -8.682127824449    3.230593917238    0.080623251666
 O   -9.736247824449    2.620763917238    0.096613251666
 N   -7.427767824449    2.601363917238    0.063223251666
 H   -7.462037824449    1.582973917238    0.064973251666
 C   -6.186487824449    3.199153917238    0.044803251666
 O   -5.159007824449    2.477803917238    0.030803251666
 C   -6.188017824449    4.639463917238    0.042993251666
 H   -5.245487824449    5.181103917238    0.028473251666
 H   -9.464167824449    5.119383917238    0.089523251666
LI   -3.543077824449    1.701693917238    0.020383251666
 O    5.380850646223   -2.584351966787   -0.037160908456
 C    6.408325296909   -3.305708310895   -0.051161162427
 N    7.649759634474   -2.707969190151   -0.055560201712
 H    7.684142340208   -1.689612376211   -0.047369356294
 C    8.904153991921   -3.337208297852   -0.070554995704
 O    9.958412770245   -2.727426798416   -0.073672586426
 N    8.800351694364   -4.727670464666   -0.080934908105
 H    9.686043414503   -5.225955918090   -0.092225336888
 C    7.611242161099   -5.402893613182   -0.077511444039
 H    7.681775339791   -6.491270615978   -0.086842064968
 C    6.409697669353   -4.745963061666   -0.063070002229
 H    5.467040526652   -5.287559685086   -0.060033933327
