22

 H    3.987774967631   -0.487598876253   -0.686029419689
 H    3.374114967631   -1.688198876253   -1.832369419689
 H    3.156694967631   -1.990798876253   -0.071909419689
 C    3.192844967631   -1.220868876253   -0.853989419689
 S    1.591844967631   -0.346248876253   -0.894899419689
 S    1.456404967631    0.294481123747    1.115150580311
 C    3.074484967631    1.115911123747    1.306740580311
 H    3.860924967631    0.356981123747    1.249840580311
 H    3.130074967631    1.575851123747    2.303780580311
 H    3.174854967631    1.887171123747    0.531800580311
RB   -1.242415032369    1.277781123747    2.449330580311
RB   -0.917495032369   -1.241098876253   -2.605389419689
 S    0.359422586134    0.313111422466    1.035887936817
 S    0.494863002430   -0.327620546919   -0.974168241389
 C   -1.241573711870    1.187730485611    0.994968545806
 H   -2.036501690124    0.454463889778    0.827014616341
 H   -1.422847379000    1.655061912596    1.973346627663
 H   -1.205425660058    1.957656650151    0.212892601215
 C   -1.123217622766   -1.149051060618   -1.165757840346
 H   -1.909658732537   -0.390128666401   -1.108866254693
 H   -1.178805737230   -1.608993995412   -2.162796853958
 H   -1.223590499361   -1.920316851906   -0.390822585158
