22

 H    4.013971652270   -0.488043780445   -0.684136573906
 H    3.400311652270   -1.688643780445   -1.830476573906
 H    3.182891652270   -1.991243780445   -0.070016573906
 C    3.219041652270   -1.221313780445   -0.852096573906
 S    1.618041652270   -0.346693780445   -0.893006573906
 S    1.482601652270    0.294036219555    1.117043426094
 C    3.100681652270    1.115466219555    1.308633426094
 H    3.887121652270    0.356536219555    1.251733426094
 H    3.156271652270    1.575406219555    2.305673426094
 H    3.201051652270    1.886726219555    0.533693426094
RB   -1.216218347730    1.277336219555    2.451223426094
RB   -0.891298347730   -1.241543780445   -2.603496573906
 S    0.285893599727    0.314360181793    1.030575087737
 S    0.421334016023   -0.326371787591   -0.979481090468
 C   -1.315102698277    1.188979244939    0.989655696726
 H   -2.110030676531    0.455712649105    0.821701767261
 H   -1.496376365407    1.656310671923    1.968033778583
 H   -1.278954646465    1.958905409479    0.207579752136
 C   -1.196746609173   -1.147802301291   -1.171070689426
 H   -1.983187718944   -0.388879907073   -1.114179103772
 H   -1.252334723637   -1.607745236084   -2.168109703037
 H   -1.297119485768   -1.919068092578   -0.396135434238
