22

 H    4.092561706185   -0.489378493021   -0.678458036556
 H    3.478901706185   -1.689978493021   -1.824798036556
 H    3.261481706185   -1.992578493021   -0.064338036556
 C    3.297631706185   -1.222648493021   -0.846418036556
 S    1.696631706185   -0.348028493021   -0.887328036556
 S    1.561191706185    0.292701506979    1.122721963444
 C    3.179271706185    1.114131506979    1.314311963444
 H    3.965711706185    0.355201506979    1.257411963444
 H    3.234861706185    1.574071506979    2.311351963444
 H    3.279641706185    1.885391506979    0.539371963444
RB   -1.137628293815    1.276001506979    2.456901963444
RB   -0.812708293815   -1.242878493021   -2.597818036556
 S    0.065306640507    0.318106459776    1.014636540498
 S    0.200747056803   -0.322625509608   -0.995419637708
 C   -1.535689657497    1.192725522922    0.973717149487
 H   -2.330617635751    0.459458927088    0.805763220022
 H   -1.716963324627    1.660056949906    1.952095231344
 H   -1.499541605685    1.962651687462    0.191641204896
 C   -1.417333568393   -1.144056023307   -1.187009236665
 H   -2.203774678164   -0.385133629090   -1.130117651012
 H   -1.472921682857   -1.603998958101   -2.184048250277
 H   -1.517706444988   -1.915321814595   -0.412073981477
