22

 H    4.118758390824   -0.489823397214   -0.676565190772
 H    3.505098390824   -1.690423397214   -1.822905190772
 H    3.287678390824   -1.993023397214   -0.062445190772
 C    3.323828390824   -1.223093397214   -0.844525190772
 S    1.722828390824   -0.348473397214   -0.885435190772
 S    1.587388390824    0.292256602786    1.124614809228
 C    3.205468390824    1.113686602786    1.316204809228
 H    3.991908390824    0.354756602786    1.259304809228
 H    3.261058390824    1.573626602786    2.313244809228
 H    3.305838390824    1.884946602786    0.541264809228
RB   -1.111431609176    1.275556602786    2.458794809228
RB   -0.786511609176   -1.243323397214   -2.595925190772
 S   -0.008222345900    0.319355219104    1.009323691418
 S    0.127218070396   -0.321376750281   -1.000732486787
 C   -1.609218643903    1.193974282250    0.968404300407
 H   -2.404146622158    0.460707686416    0.800450370942
 H   -1.790492311033    1.661305709234    1.946782382264
 H   -1.573070592091    1.963900446790    0.186328355817
 C   -1.490862554800   -1.142807263980   -1.192322085745
 H   -2.277303664570   -0.383884869762   -1.135430500091
 H   -1.546450669263   -1.602750198773   -2.189361099356
 H   -1.591235431395   -1.914073055267   -0.417386830557
