22

 H    4.197348444740   -0.491158109790   -0.670886653422
 H    3.583688444740   -1.691758109790   -1.817226653422
 H    3.366268444740   -1.994358109790   -0.056766653422
 C    3.402418444740   -1.224428109790   -0.838846653422
 S    1.801418444740   -0.349808109790   -0.879756653422
 S    1.665978444740    0.290921890210    1.130293346578
 C    3.284058444740    1.112351890210    1.321883346578
 H    4.070498444740    0.353421890210    1.264983346578
 H    3.339648444740    1.572291890210    2.318923346578
 H    3.384428444740    1.883611890210    0.546943346578
RB   -1.032841555260    1.274221890210    2.464473346578
RB   -0.707921555260   -1.244658109790   -2.590246653422
 S   -0.228809305120    0.323101497087    0.993385144179
 S   -0.093368888824   -0.317630472298   -1.016671034026
 C   -1.829805603123    1.197720560233    0.952465753168
 H   -2.624733581378    0.464453964399    0.784511823703
 H   -2.011079270253    1.665051987217    1.930843835025
 H   -1.793657551311    1.967646724773    0.170389808577
 C   -1.711449514020   -1.139060985997   -1.208260632984
 H   -2.497890623790   -0.380138591779   -1.151369047331
 H   -1.767037628483   -1.599003920790   -2.205299646596
 H   -1.811822390615   -1.910326777284   -0.433325377796
