22

 H    4.354528552571   -0.493827534943   -0.659529578722
 H    3.740868552571   -1.694427534943   -1.805869578722
 H    3.523448552571   -1.997027534943   -0.045409578722
 C    3.559598552571   -1.227097534943   -0.827489578722
 S    1.958598552571   -0.352477534943   -0.868399578722
 S    1.823158552571    0.288252465057    1.141650421278
 C    3.441238552571    1.109682465057    1.333240421278
 H    4.227678552571    0.350752465057    1.276340421278
 H    3.496828552571    1.569622465057    2.330280421278
 H    3.541608552571    1.880942465057    0.558300421278
RB   -0.875661447429    1.271552465057    2.475830421278
RB   -0.550741447429   -1.247327534943   -2.578889578722
 S   -0.669983223560    0.330594053053    0.961508049701
 S   -0.534542807264   -0.310137916331   -1.048548128505
 C   -2.270979521563    1.205213116199    0.920588658690
 H   -3.065907499818    0.471946520365    0.752634729224
 H   -2.452253188693    1.672544543183    1.898966740546
 H   -2.234831469751    1.975139280739    0.138512714099
 C   -2.152623432460   -1.131568430031   -1.240137727462
 H   -2.939064542230   -0.372646035813   -1.183246141809
 H   -2.208211546923   -1.591511364824   -2.237176741074
 H   -2.252996309055   -1.902834221318   -0.465202472274
