22

 H    4.380725237210   -0.494272439135   -0.657636732939
 H    3.767065237210   -1.694872439135   -1.803976732939
 H    3.549645237210   -1.997472439135   -0.043516732939
 C    3.585795237210   -1.227542439135   -0.825596732939
 S    1.984795237210   -0.352922439135   -0.866506732939
 S    1.849355237210    0.287807560865    1.143543267061
 C    3.467435237210    1.109237560865    1.335133267061
 H    4.253875237210    0.350307560865    1.278233267061
 H    3.523025237210    1.569177560865    2.332173267061
 H    3.567805237210    1.880497560865    0.560193267061
RB   -0.849464762790    1.271107560865    2.477723267061
RB   -0.524544762790   -1.247772439135   -2.576996732939
 S   -0.743512209966    0.331842812381    0.956195200621
 S   -0.608071793670   -0.308889157004   -1.053860977585
 C   -2.344508507970    1.206461875527    0.915275809610
 H   -3.139436486224    0.473195279693    0.747321880145
 H   -2.525782175100    1.673793302511    1.893653891467
 H   -2.308360456158    1.976388040066    0.133199865019
 C   -2.226152418866   -1.130319670703   -1.245450576542
 H   -3.012593528637   -0.371397276486   -1.188558990889
 H   -2.281740533330   -1.590262605496   -2.242489590154
 H   -2.326525295461   -1.901585461990   -0.470515321354
