22

 H    4.433118606487   -0.495162247519   -0.653851041372
 H    3.819458606487   -1.695762247519   -1.800191041372
 H    3.602038606487   -1.998362247519   -0.039731041372
 C    3.638188606487   -1.228432247519   -0.821811041372
 S    2.037188606487   -0.353812247519   -0.862721041372
 S    1.901748606487    0.286917752481    1.147328958628
 C    3.519828606487    1.108347752481    1.338918958628
 H    4.306268606487    0.349417752481    1.282018958628
 H    3.575418606487    1.568287752481    2.335958958628
 H    3.620198606487    1.879607752481    0.563978958628
RB   -0.797071393513    1.270217752481    2.481508958628
RB   -0.472151393513   -1.248662247519   -2.573211041372
 S   -0.890570182780    0.334340331036    0.945569502461
 S   -0.755129766484   -0.306391638348   -1.064486675744
 C   -2.491566480783    1.208959394182    0.904650111450
 H   -3.286494459038    0.475692798348    0.736696181985
 H   -2.672840147913    1.676290821166    1.883028193307
 H   -2.455418428971    1.978885558722    0.122574166860
 C   -2.373210391680   -1.127822152048   -1.256076274702
 H   -3.159651501450   -0.368899757830   -1.199184689048
 H   -2.428798506143   -1.587765086841   -2.253115288313
 H   -2.473583268275   -1.899087943335   -0.481141019513
