22

 H    4.459315291125   -0.495607151711   -0.651958195589
 H    3.845655291125   -1.696207151711   -1.798298195589
 H    3.628235291125   -1.998807151711   -0.037838195589
 C    3.664385291125   -1.228877151711   -0.819918195589
 S    2.063385291125   -0.354257151711   -0.860828195589
 S    1.927945291125    0.286472848289    1.149221804411
 C    3.546025291125    1.107902848289    1.340811804411
 H    4.332465291125    0.348972848289    1.283911804411
 H    3.601615291125    1.567842848289    2.337851804411
 H    3.646395291125    1.879162848289    0.565871804411
RB   -0.770874708875    1.269772848289    2.483401804411
RB   -0.445954708875   -1.249107151711   -2.571318195589
 S   -0.964099169186    0.335589090364    0.940256653382
 S   -0.828658752890   -0.305142879021   -1.069799524824
 C   -2.565095467190    1.210208153510    0.899337262371
 H   -3.360023445444    0.476941557676    0.731383332905
 H   -2.746369134320    1.677539580494    1.877715344228
 H   -2.528947415378    1.980134318050    0.117261317780
 C   -2.446739378086   -1.126573392720   -1.261389123781
 H   -3.233180487857   -0.367650998502   -1.204497538128
 H   -2.502327492550   -1.586516327513   -2.258428137393
 H   -2.547112254681   -1.897839184007   -0.486453868593
