22

 H    4.564102029680   -0.497386768480   -0.644386812455
 H    3.950442029680   -1.697986768480   -1.790726812455
 H    3.733022029680   -2.000586768480   -0.030266812455
 C    3.769172029680   -1.230656768480   -0.812346812455
 S    2.168172029680   -0.356036768480   -0.853256812455
 S    2.032732029680    0.284693231520    1.156793187545
 C    3.650812029680    1.106123231520    1.348383187545
 H    4.437252029680    0.347193231520    1.291483187545
 H    3.706402029680    1.566063231520    2.345423187545
 H    3.751182029680    1.877383231520    0.573443187545
RB   -0.666087970320    1.267993231520    2.490973187545
RB   -0.341167970320   -1.250886768480   -2.563746812455
 S   -1.258215114813    0.340584127675    0.919005257063
 S   -1.122774698517   -0.300147841710   -1.091050921143
 C   -2.859211412817    1.215203190821    0.878085866052
 H   -3.654139391071    0.481936594987    0.710131936586
 H   -3.040485079947    1.682534617805    1.856463947909
 H   -2.823063361005    1.985129355360    0.096009921461
 C   -2.740855323713   -1.121578355409   -1.282640520100
 H   -3.527296433484   -0.362655961192   -1.225748934447
 H   -2.796443438177   -1.581521290203   -2.279679533712
 H   -2.841228200308   -1.892844146697   -0.507705264912
