22

 H    4.747478822150   -0.500501097825   -0.631136891972
 H    4.133818822150   -1.701101097825   -1.777476891972
 H    3.916398822150   -2.003701097825   -0.017016891972
 C    3.952548822150   -1.233771097825   -0.799096891972
 S    2.351548822150   -0.359151097825   -0.840006891972
 S    2.216108822150    0.281578902175    1.170043108028
 C    3.834188822150    1.103008902175    1.361633108028
 H    4.620628822150    0.344078902175    1.304733108028
 H    3.889778822150    1.562948902175    2.358673108028
 H    3.934558822150    1.874268902175    0.586693108028
RB   -0.482711177850    1.264878902175    2.504223108028
RB   -0.157791177850   -1.254001097825   -2.550496891972
 S   -1.772918019660    0.349325442969    0.881815313505
 S   -1.637477603364   -0.291406526416   -1.128240864701
 C   -3.373914317663    1.223944506114    0.840895922494
 H   -4.168842295918    0.490677910281    0.672941993028
 H   -3.555187984793    1.691275933099    1.819274004350
 H   -3.337766265851    1.993870670654    0.058819977903
 C   -3.255558228560   -1.112837040115   -1.319830463658
 H   -4.041999338330   -0.353914645898   -1.262938878005
 H   -3.311146343023   -1.572779974909   -2.316869477270
 H   -3.355931105155   -1.884102831403   -0.544895208470
