22

 H    4.799872191427   -0.501390906209   -0.627351200405
 H    4.186212191427   -1.701990906209   -1.773691200405
 H    3.968792191427   -2.004590906209   -0.013231200405
 C    4.004942191427   -1.234660906209   -0.795311200405
 S    2.403942191427   -0.360040906209   -0.836221200405
 S    2.268502191427    0.280689093791    1.173828799595
 C    3.886582191427    1.102119093791    1.365418799595
 H    4.673022191427    0.343189093791    1.308518799595
 H    3.942172191427    1.562059093791    2.362458799595
 H    3.986952191427    1.873379093791    0.590478799595
RB   -0.430317808573    1.263989093791    2.508008799595
RB   -0.105397808573   -1.254890906209   -2.546711200405
 S   -1.919975992473    0.351822961624    0.871189615345
 S   -1.784535576177   -0.288909007761   -1.138866562860
 C   -3.520972290477    1.226442024770    0.830270224334
 H   -4.315900268731    0.493175428936    0.662316294869
 H   -3.702245957606    1.693773451754    1.808648306191
 H   -3.484824238665    1.996368189310    0.048194279743
 C   -3.402616201373   -1.110339521460   -1.330456161818
 H   -4.189057311144   -0.351417127242   -1.273564576164
 H   -3.458204315837   -1.570282456253   -2.327495175430
 H   -3.502989077968   -1.881605312747   -0.555520906630
