22

 H    4.826068876065   -0.501835810402   -0.625458354622
 H    4.212408876065   -1.702435810402   -1.771798354622
 H    3.994988876065   -2.005035810402   -0.011338354622
 C    4.031138876065   -1.235105810402   -0.793418354622
 S    2.430138876065   -0.360485810402   -0.834328354622
 S    2.294698876065    0.280244189598    1.175721645378
 C    3.912778876065    1.101674189598    1.367311645378
 H    4.699218876065    0.342744189598    1.310411645378
 H    3.968368876065    1.561614189598    2.364351645378
 H    4.013148876065    1.872934189598    0.592371645378
RB   -0.404121123935    1.263544189598    2.509901645378
RB   -0.079201123935   -1.255335810402   -2.544818354622
 S   -1.993504978880    0.353071720952    0.865876766265
 S   -1.858064562584   -0.287660248433   -1.144179411940
 C   -3.594501276883    1.227690784097    0.824957375254
 H   -4.389429255138    0.494424188264    0.657003445789
 H   -3.775774944013    1.695022211082    1.803335457111
 H   -3.558353225071    1.997616948637    0.042881430664
 C   -3.476145187780   -1.109090762132   -1.335769010898
 H   -4.262586297550   -0.350168367915   -1.278877425244
 H   -3.531733302243   -1.569033696926   -2.332808024509
 H   -3.576518064375   -1.880356553420   -0.560833755709
