22

 H    4.852265560704   -0.502280714594   -0.623565508839
 H    4.238605560704   -1.702880714594   -1.769905508839
 H    4.021185560704   -2.005480714594   -0.009445508839
 C    4.057335560704   -1.235550714594   -0.791525508839
 S    2.456335560704   -0.360930714594   -0.832435508839
 S    2.320895560704    0.279799285406    1.177614491161
 C    3.938975560704    1.101229285406    1.369204491161
 H    4.725415560704    0.342299285406    1.312304491161
 H    3.994565560704    1.561169285406    2.366244491161
 H    4.039345560704    1.872489285406    0.594264491161
RB   -0.377924439296    1.263099285406    2.511794491161
RB   -0.053004439296   -1.255780714594   -2.542925508839
 S   -2.067033965286    0.354320480279    0.860563917186
 S   -1.931593548990   -0.286411489105   -1.149492261020
 C   -3.668030263290    1.228939543425    0.819644526175
 H   -4.462958241544    0.495672947591    0.651690596709
 H   -3.849303930420    1.696270970410    1.798022608032
 H   -3.631882211478    1.998865707965    0.037568581584
 C   -3.549674174186   -1.107842002804   -1.341081859977
 H   -4.336115283957   -0.348919608587   -1.284190274324
 H   -3.605262288650   -1.567784937598   -2.338120873589
 H   -3.650047050781   -1.879107794092   -0.566146604789
