22

 H    4.983248983897   -0.504505235555   -0.614101279922
 H    4.369588983897   -1.705105235555   -1.760441279922
 H    4.152168983897   -2.007705235555    0.000018720078
 C    4.188318983897   -1.237775235555   -0.782061279922
 S    2.587318983897   -0.363155235555   -0.822971279922
 S    2.451878983897    0.277574764445    1.187078720078
 C    4.069958983897    1.099004764445    1.378668720078
 H    4.856398983897    0.340074764445    1.321768720078
 H    4.125548983897    1.558944764445    2.375708720078
 H    4.170328983897    1.870264764445    0.603728720078
RB   -0.246941016103    1.260874764445    2.521258720078
RB    0.077978983897   -1.258005235555   -2.533461279922
 S   -2.434678897320    0.360564276918    0.833999671787
 S   -2.299238481024   -0.280167692467   -1.176056506418
 C   -4.035675195323    1.235183340064    0.793080280776
 H   -4.830603173578    0.501916744230    0.625126351311
 H   -4.216948862453    1.702514767048    1.771458362633
 H   -3.999527143511    2.005109504603    0.011004336185
 C   -3.917319106220   -1.101598206166   -1.367646105376
 H   -4.703760215990   -0.342675811949   -1.310754519723
 H   -3.972907220683   -1.561541140960   -2.364685118988
 H   -4.017691982815   -1.872863997454   -0.592710850188
