22

 H    5.114232407089   -0.506729756515   -0.604637051005
 H    4.500572407089   -1.707329756515   -1.750977051005
 H    4.283152407089   -2.009929756515    0.009482948995
 C    4.319302407089   -1.239999756515   -0.772597051005
 S    2.718302407089   -0.365379756515   -0.813507051005
 S    2.582862407089    0.275350243485    1.196542948995
 C    4.200942407089    1.096780243485    1.388132948995
 H    4.987382407089    0.337850243485    1.331232948995
 H    4.256532407089    1.556720243485    2.385172948995
 H    4.301312407089    1.868040243485    0.613192948995
RB   -0.115957592911    1.258650243485    2.530722948995
RB    0.208962407089   -1.260229756515   -2.523997051005
 S   -2.802323829353    0.366808073556    0.807435426388
 S   -2.666883413057   -0.273923895828   -1.202620751817
 C   -4.403320127357    1.241427136702    0.766516035377
 H   -5.198248105611    0.508160540868    0.598562105912
 H   -4.584593794486    1.708758563686    1.744894117234
 H   -4.367172075545    2.011353301242   -0.015559909213
 C   -4.284964038253   -1.095354409528   -1.394210350775
 H   -5.071405148024   -0.336432015310   -1.337318765121
 H   -4.340552152717   -1.555297344321   -2.391249364386
 H   -4.385336914848   -1.866620200815   -0.619275095586
