22

 H    5.140429091728   -0.507174660707   -0.602744205222
 H    4.526769091728   -1.707774660707   -1.749084205222
 H    4.309349091728   -2.010374660707    0.011375794778
 C    4.345499091728   -1.240444660707   -0.770704205222
 S    2.744499091728   -0.365824660707   -0.811614205222
 S    2.609059091728    0.274905339293    1.198435794778
 C    4.227139091728    1.096335339293    1.390025794778
 H    5.013579091728    0.337405339293    1.333125794778
 H    4.282729091728    1.556275339293    2.387065794778
 H    4.327509091728    1.867595339293    0.615085794778
RB   -0.089760908272    1.258205339293    2.532615794778
RB    0.235159091728   -1.260674660707   -2.522104205222
 S   -2.875852815760    0.368056832884    0.802122577309
 S   -2.740412399464   -0.272675136501   -1.207933600897
 C   -4.476849113763    1.242675896030    0.761203186298
 H   -5.271777092018    0.509409300196    0.593249256832
 H   -4.658122780893    1.710007323014    1.739581268154
 H   -4.440701061951    2.012602060570   -0.020872758293
 C   -4.358493024660   -1.094105650200   -1.399523199854
 H   -5.144934134430   -0.335183255982   -1.342631614201
 H   -4.414081139123   -1.554048584993   -2.396562213466
 H   -4.458865901255   -1.865371441487   -0.624587944666
