22

 H    5.219019145644   -0.508509373284   -0.597065667872
 H    4.605359145644   -1.709109373284   -1.743405667872
 H    4.387939145644   -2.011709373284    0.017054332128
 C    4.424089145644   -1.241779373284   -0.765025667872
 S    2.823089145644   -0.367159373284   -0.805935667872
 S    2.687649145644    0.273570626716    1.204114332128
 C    4.305729145644    1.095000626716    1.395704332128
 H    5.092169145644    0.336070626716    1.338804332128
 H    4.361319145644    1.554940626716    2.392744332128
 H    4.406099145644    1.866260626716    0.620764332128
RB   -0.011170854356    1.256870626716    2.538294332128
RB    0.313749145644   -1.262009373284   -2.516425667872
 S   -3.096439774980    0.371803110867    0.786184030069
 S   -2.960999358684   -0.268928858518   -1.223872148136
 C   -4.697436072983    1.246422174013    0.745264639058
 H   -5.492364051238    0.513155578179    0.577310709593
 H   -4.878709740113    1.713753600997    1.723642720915
 H   -4.661288021171    2.016348338553   -0.036811305532
 C   -4.579079983880   -1.090359372217   -1.415461747094
 H   -5.365521093650   -0.331436977999   -1.358570161440
 H   -4.634668098343   -1.550302307010   -2.412500760705
 H   -4.679452860475   -1.861625163504   -0.640526491905
