22

 H    5.297609199559   -0.509844085860   -0.591387130521
 H    4.683949199559   -1.710444085860   -1.737727130521
 H    4.466529199559   -2.013044085860    0.022732869479
 C    4.502679199559   -1.243114085860   -0.759347130521
 S    2.901679199559   -0.368494085860   -0.800257130521
 S    2.766239199559    0.272235914140    1.209792869479
 C    4.384319199559    1.093665914140    1.401382869479
 H    5.170759199559    0.334735914140    1.344482869479
 H    4.439909199559    1.553605914140    2.398422869479
 H    4.484689199559    1.864925914140    0.626442869479
RB    0.067419199559    1.255535914140    2.543972869479
RB    0.392339199559   -1.263344085860   -2.510747130521
 S   -3.317026734200    0.375549388850    0.770245482830
 S   -3.181586317904   -0.265182580535   -1.239810695375
 C   -4.918023032203    1.250168451996    0.729326091819
 H   -5.712951010458    0.516901856162    0.561372162354
 H   -5.099296699333    1.717499878980    1.707704173676
 H   -4.881874980391    2.020094616536   -0.052749852771
 C   -4.799666943100   -1.086613094234   -1.431400294333
 H   -5.586108052870   -0.327690700016   -1.374508708679
 H   -4.855255057563   -1.546556029027   -2.428439307944
 H   -4.900039819695   -1.857878885521   -0.656465039145
