22

 H    5.402395938114   -0.511623702629   -0.583815747388
 H    4.788735938114   -1.712223702629   -1.730155747388
 H    4.571315938114   -2.014823702629    0.030304252612
 C    4.607465938114   -1.244893702629   -0.751775747388
 S    3.006465938114   -0.370273702629   -0.792685747388
 S    2.871025938114    0.270456297371    1.217364252612
 C    4.489105938114    1.091886297371    1.408954252612
 H    5.275545938114    0.332956297371    1.352054252612
 H    4.544695938114    1.551826297371    2.405994252612
 H    4.589475938114    1.863146297371    0.634014252612
RB    0.172205938114    1.253756297371    2.551544252612
RB    0.497125938114   -1.265123702629   -2.503175747388
 S   -3.611142679826    0.380544426161    0.748994086511
 S   -3.475702263530   -0.260187543224   -1.261062091694
 C   -5.212138977830    1.255163489307    0.708074695500
 H   -6.007066956084    0.521896893473    0.540120766035
 H   -5.393412644960    1.722494916291    1.686452777357
 H   -5.175990926018    2.025089653846   -0.074001249090
 C   -5.093782888726   -1.081618056923   -1.452651690652
 H   -5.880223998497   -0.322695662706   -1.395760104998
 H   -5.149371003190   -1.541560991717   -2.449690704263
 H   -5.194155765321   -1.852883848210   -0.677716435463
