22

 H    5.454789307391   -0.512513511013   -0.580030055821
 H    4.841129307391   -1.713113511013   -1.726370055821
 H    4.623709307391   -2.015713511013    0.034089944179
 C    4.659859307391   -1.245783511013   -0.747990055821
 S    3.058859307391   -0.371163511013   -0.788900055821
 S    2.923419307391    0.269566488987    1.221149944179
 C    4.541499307391    1.090996488987    1.412739944179
 H    5.327939307391    0.332066488987    1.355839944179
 H    4.597089307391    1.550936488987    2.409779944179
 H    4.641869307391    1.862256488987    0.637799944179
RB    0.224599307391    1.252866488987    2.555329944179
RB    0.549519307391   -1.266013511013   -2.499390055821
 S   -3.758200652640    0.383041944816    0.738368388352
 S   -3.622760236344   -0.257690024568   -1.271687789854
 C   -5.359196950643    1.257661007962    0.697448997341
 H   -6.154124928898    0.524394412128    0.529495067875
 H   -5.540470617773    1.724992434946    1.675827079198
 H   -5.323048898831    2.027587172502   -0.084626947250
 C   -5.240840861540   -1.079120538268   -1.463277388811
 H   -6.027281971310   -0.320198144050   -1.406385803158
 H   -5.296428976003   -1.539063473061   -2.460316402423
 H   -5.341213738135   -1.850386329555   -0.688342133623
