22

 H    5.480985992029   -0.512958415205   -0.578137210038
 H    4.867325992029   -1.713558415205   -1.724477210038
 H    4.649905992029   -2.016158415205    0.035982789962
 C    4.686055992029   -1.246228415205   -0.746097210038
 S    3.085055992029   -0.371608415205   -0.787007210038
 S    2.949615992029    0.269121584795    1.223042789962
 C    4.567695992029    1.090551584795    1.414632789962
 H    5.354135992029    0.331621584795    1.357732789962
 H    4.623285992029    1.550491584795    2.411672789962
 H    4.668065992029    1.861811584795    0.639692789962
RB    0.250795992029    1.252421584795    2.557222789962
RB    0.575715992029   -1.266458415205   -2.497497210038
 S   -3.831729639046    0.384290704144    0.733055539272
 S   -3.696289222750   -0.256441265241   -1.277000638933
 C   -5.432725937050    1.258909767290    0.692136148261
 H   -6.227653915304    0.525643171456    0.524182218796
 H   -5.613999604180    1.726241194274    1.670514230118
 H   -5.396577885238    2.028835931830   -0.089939796330
 C   -5.314369847946   -1.077871778940   -1.468590237891
 H   -6.100810957717   -0.318949384722   -1.411698652238
 H   -5.369957962410   -1.537814713733   -2.465629251503
 H   -5.414742724541   -1.849137570227   -0.693654982703
