22

 H    5.507182676668   -0.513403319398   -0.576244364255
 H    4.893522676668   -1.714003319398   -1.722584364255
 H    4.676102676668   -2.016603319398    0.037875635745
 C    4.712252676668   -1.246673319398   -0.744204364255
 S    3.111252676668   -0.372053319398   -0.785114364255
 S    2.975812676668    0.268676680602    1.224935635745
 C    4.593892676668    1.090106680602    1.416525635745
 H    5.380332676668    0.331176680602    1.359625635745
 H    4.649482676668    1.550046680602    2.413565635745
 H    4.694262676668    1.861366680602    0.641585635745
RB    0.276992676668    1.251976680602    2.559115635745
RB    0.601912676668   -1.266903319398   -2.495604364255
 S   -3.905258625453    0.385539463472    0.727742690192
 S   -3.769818209157   -0.255192505913   -1.282313488013
 C   -5.506254923457    1.260158526617    0.686823299181
 H   -6.301182901711    0.526891930784    0.518869369716
 H   -5.687528590586    1.727489953602    1.665201381038
 H   -5.470106871645    2.030084691157   -0.095252645409
 C   -5.387898834353   -1.076623019612   -1.473903086971
 H   -6.174339944124   -0.317700625395   -1.417011501317
 H   -5.443486948817   -1.536565954406   -2.470942100582
 H   -5.488271710948   -1.847888810900   -0.698967831782
