22

 H    5.638166099861   -0.515627840358   -0.566780135338
 H    5.024506099861   -1.716227840358   -1.713120135338
 H    4.807086099861   -2.018827840358    0.047339864662
 C    4.843236099861   -1.248897840358   -0.734740135338
 S    3.242236099861   -0.374277840358   -0.775650135338
 S    3.106796099861    0.266452159642    1.234399864662
 C    4.724876099861    1.087882159642    1.425989864662
 H    5.511316099861    0.328952159642    1.369089864662
 H    4.780466099861    1.547822159642    2.423029864662
 H    4.825246099861    1.859142159642    0.651049864662
RB    0.407976099861    1.249752159642    2.568579864662
RB    0.732896099861   -1.269127840358   -2.486140135338
 S   -4.272903557486    0.391783260110    0.701178444794
 S   -4.137463141190   -0.248948709275   -1.308877733412
 C   -5.873899855490    1.266402323256    0.660259053783
 H   -6.668827833744    0.533135727422    0.492305124317
 H   -6.055173522620    1.733733750240    1.638637135639
 H   -5.837751803678    2.036328487796   -0.121816890808
 C   -5.755543766386   -1.070379222974   -1.500467332369
 H   -6.541984876157   -0.311456828756   -1.443575746716
 H   -5.811131880850   -1.530322157767   -2.497506345981
 H   -5.855916642981   -1.841645014261   -0.725532077181
