22

 H    5.664362784499   -0.516072744550   -0.564887289555
 H    5.050702784499   -1.716672744550   -1.711227289555
 H    4.833282784499   -2.019272744550    0.049232710445
 C    4.869432784499   -1.249342744550   -0.732847289555
 S    3.268432784499   -0.374722744550   -0.773757289555
 S    3.132992784499    0.266007255450    1.236292710445
 C    4.751072784499    1.087437255450    1.427882710445
 H    5.537512784499    0.328507255450    1.370982710445
 H    4.806662784499    1.547377255450    2.424922710445
 H    4.851442784499    1.858697255450    0.652942710445
RB    0.434172784499    1.249307255450    2.570472710445
RB    0.759092784499   -1.269572744550   -2.484247289555
 S   -4.346432543893    0.393032019438    0.695865595714
 S   -4.210992127597   -0.247699949947   -1.314190582492
 C   -5.947428841897    1.267651082584    0.654946204703
 H   -6.742356820151    0.534384486750    0.486992275238
 H   -6.128702509026    1.734982509568    1.633324286560
 H   -5.911280790085    2.037577247123   -0.127129739888
 C   -5.829072752793   -1.069130463646   -1.505780181449
 H   -6.615513862564   -0.310208069429   -1.448888595796
 H   -5.884660867257   -1.529073398440   -2.502819195061
 H   -5.929445629388   -1.840396254934   -0.730844926261
