22

 H    5.769149523054   -0.517852361319   -0.557315906421
 H    5.155489523054   -1.718452361319   -1.703655906421
 H    4.938069523054   -2.021052361319    0.056804093579
 C    4.974219523054   -1.251122361319   -0.725275906421
 S    3.373219523054   -0.376502361319   -0.766185906421
 S    3.237779523054    0.264227638681    1.243864093579
 C    4.855859523054    1.085657638681    1.435454093579
 H    5.642299523054    0.326727638681    1.378554093579
 H    4.911449523054    1.545597638681    2.432494093579
 H    4.956229523054    1.856917638681    0.660514093579
RB    0.538959523054    1.247527638681    2.578044093579
RB    0.863879523054   -1.271352361319   -2.476675906421
 S   -4.640548489520    0.398027056749    0.674614199395
 S   -4.505108073224   -0.242704912636   -1.335441978811
 C   -6.241544787523    1.272646119894    0.633694808384
 H   -7.036472765778    0.539379524061    0.465740878919
 H   -6.422818454653    1.739977546879    1.612072890241
 H   -6.205396735711    2.042572284434   -0.148381136207
 C   -6.123188698420   -1.064135426335   -1.527031577768
 H   -6.909629808190   -0.305213032118   -1.470139992115
 H   -6.178776812883   -1.524078361129   -2.524070591380
 H   -6.223561575015   -1.835401217623   -0.752096322580
