22

 H    5.795346207692   -0.518297265511   -0.555423060638
 H    5.181686207692   -1.718897265511   -1.701763060638
 H    4.964266207692   -2.021497265511    0.058696939362
 C    5.000416207692   -1.251567265511   -0.723383060638
 S    3.399416207692   -0.376947265511   -0.764293060638
 S    3.263976207692    0.263782734489    1.245756939362
 C    4.882056207692    1.085212734489    1.437346939362
 H    5.668496207692    0.326282734489    1.380446939362
 H    4.937646207692    1.545152734489    2.434386939362
 H    4.982426207692    1.856472734489    0.662406939362
RB    0.565156207692    1.247082734489    2.579936939362
RB    0.890076207692   -1.271797265511   -2.474783060638
 S   -4.714077475926    0.399275816076    0.669301350315
 S   -4.578637059630   -0.241456153308   -1.340754827890
 C   -6.315073773930    1.273894879222    0.628381959304
 H   -7.110001752184    0.540628283388    0.460428029839
 H   -6.496347441060    1.741226306206    1.606760041161
 H   -6.278925722118    2.043821043762   -0.153693985286
 C   -6.196717684826   -1.062886667008   -1.532344426848
 H   -6.983158794597   -0.303964272790   -1.475452841194
 H   -6.252305799290   -1.522829601801   -2.529383440459
 H   -6.297090561421   -1.834152458295   -0.757409171659
