22

 H    5.900132946246   -0.520076882280   -0.547851677504
 H    5.286472946246   -1.720676882280   -1.694191677504
 H    5.069052946246   -2.023276882280    0.066268322496
 C    5.105202946246   -1.253346882280   -0.715811677504
 S    3.504202946246   -0.378726882280   -0.756721677504
 S    3.368762946246    0.262003117720    1.253328322496
 C    4.986842946246    1.083433117720    1.444918322496
 H    5.773282946246    0.324503117720    1.388018322496
 H    5.042432946246    1.543373117720    2.441958322496
 H    5.087212946246    1.854693117720    0.669978322496
RB    0.669942946246    1.245303117720    2.587508322496
RB    0.994862946246   -1.273576882280   -2.467211677504
 S   -5.008193421553    0.404270853387    0.648049953996
 S   -4.872753005257   -0.236461115998   -1.362006224209
 C   -6.609189719557    1.278889916533    0.607130562985
 H   -7.404117697811    0.545623320699    0.439176633520
 H   -6.790463386686    1.746221343517    1.585508644842
 H   -6.573041667745    2.048816081073   -0.174945381605
 C   -6.490833630453   -1.057891629697   -1.553595823167
 H   -7.277274740224   -0.298969235479   -1.496704237513
 H   -6.546421744917   -1.517834564490   -2.550634836778
 H   -6.591206507048   -1.829157420984   -0.778660567978
