22

 H    6.031116369439   -0.522301403241   -0.538387448588
 H    5.417456369439   -1.722901403241   -1.684727448588
 H    5.200036369439   -2.025501403241    0.075732551412
 C    5.236186369439   -1.255571403241   -0.706347448588
 S    3.635186369439   -0.380951403241   -0.747257448588
 S    3.499746369439    0.259778596759    1.262792551412
 C    5.117826369439    1.081208596759    1.454382551412
 H    5.904266369439    0.322278596759    1.397482551412
 H    5.173416369439    1.541148596759    2.451422551412
 H    5.218196369439    1.852468596759    0.679442551412
RB    0.800926369439    1.243078596759    2.596972551412
RB    1.125846369439   -1.275801403241   -2.457747448588
 S   -5.375838353586    0.410514650025    0.621485708598
 S   -5.240397937290   -0.230217319359   -1.388570469608
 C   -6.976834651590    1.285133713171    0.580566317587
 H   -7.771762629844    0.551867117337    0.412612388121
 H   -7.158108318720    1.752465140156    1.558944399443
 H   -6.940686599778    2.055059877711   -0.201509627004
 C   -6.858478562486   -1.051647833058   -1.580160068565
 H   -7.644919672257   -0.292725438841   -1.523268482912
 H   -6.914066676950   -1.511590767852   -2.577199082177
 H   -6.958851439081   -1.822913624346   -0.805224813377
