22

 H    6.057313054078   -0.522746307433   -0.536494602804
 H    5.443653054078   -1.723346307433   -1.682834602804
 H    5.226233054078   -2.025946307433    0.077625397196
 C    5.262383054078   -1.256016307433   -0.704454602804
 S    3.661383054078   -0.381396307433   -0.745364602804
 S    3.525943054078    0.259333692567    1.264685397196
 C    5.144023054078    1.080763692567    1.456275397196
 H    5.930463054078    0.321833692567    1.399375397196
 H    5.199613054078    1.540703692567    2.453315397196
 H    5.244393054078    1.852023692567    0.681335397196
RB    0.827123054078    1.242633692567    2.598865397196
RB    1.152043054078   -1.276246307433   -2.455854602804
 S   -5.449367339993    0.411763409353    0.616172859518
 S   -5.313926923697   -0.228968560031   -1.393883318688
 C   -7.050363637997    1.286382472499    0.575253468507
 H   -7.845291616251    0.553115876665    0.407299539042
 H   -7.231637305126    1.753713899483    1.553631550364
 H   -7.014215586185    2.056308637039   -0.206822476084
 C   -6.932007548893   -1.050399073731   -1.585472917645
 H   -7.718448658664   -0.291476679513   -1.528581331992
 H   -6.987595663357   -1.510342008524   -2.582511931257
 H   -7.032380425488   -1.821664865018   -0.810537662457
