22

 H    6.083509738716   -0.523191211625   -0.534601757021
 H    5.469849738716   -1.723791211625   -1.680941757021
 H    5.252429738716   -2.026391211625    0.079518242979
 C    5.288579738716   -1.256461211625   -0.702561757021
 S    3.687579738716   -0.381841211625   -0.743471757021
 S    3.552139738716    0.258888788375    1.266578242979
 C    5.170219738716    1.080318788375    1.458168242979
 H    5.956659738716    0.321388788375    1.401268242979
 H    5.225809738716    1.540258788375    2.455208242979
 H    5.270589738716    1.851578788375    0.683228242979
RB    0.853319738716    1.242188788375    2.600758242979
RB    1.178239738716   -1.276691211625   -2.453961757021
 S   -5.522896326400    0.413012168681    0.610860010438
 S   -5.387455910103   -0.227719800704   -1.399196167767
 C   -7.123892624403    1.287631231827    0.569940619427
 H   -7.918820602658    0.554364635993    0.401986689962
 H   -7.305166291533    1.754962658811    1.548318701284
 H   -7.087744572591    2.057557396366   -0.212135325163
 C   -7.005536535300   -1.049150314403   -1.590785766725
 H   -7.791977645070   -0.290227920186   -1.533894181071
 H   -7.061124649763   -1.509093249197   -2.587824780336
 H   -7.105909411895   -1.820416105691   -0.815850511537
