22

 H    6.135903107993   -0.524081020009   -0.530816065454
 H    5.522243107993   -1.724681020009   -1.677156065454
 H    5.304823107993   -2.027281020009    0.083303934546
 C    5.340973107993   -1.257351020009   -0.698776065454
 S    3.739973107993   -0.382731020009   -0.739686065454
 S    3.604533107993    0.257998979991    1.270363934546
 C    5.222613107993    1.079428979991    1.461953934546
 H    6.009053107993    0.320498979991    1.405053934546
 H    5.278203107993    1.539368979991    2.458993934546
 H    5.322983107993    1.850688979991    0.687013934546
RB    0.905713107993    1.241298979991    2.604543934546
RB    1.230633107993   -1.277581020009   -2.450176065454
 S   -5.669954299213    0.415509687336    0.600234312279
 S   -5.534513882917   -0.225222282048   -1.409821865927
 C   -7.270950597217    1.290128750482    0.559314921268
 H   -8.065878575471    0.556862154648    0.391360991802
 H   -7.452224264346    1.757460177466    1.537693003125
 H   -7.234802545405    2.060054915022   -0.222761023323
 C   -7.152594508113   -1.046652795748   -1.601411464884
 H   -7.939035617884   -0.287730401530   -1.544519879231
 H   -7.208182622577   -1.506595730541   -2.598450478496
 H   -7.252967384708   -1.817918587035   -0.826476209696
