22

 H    6.188296477271   -0.524970828394   -0.527030373887
 H    5.574636477271   -1.725570828394   -1.673370373887
 H    5.357216477271   -2.028170828394    0.087089626113
 C    5.393366477271   -1.258240828394   -0.694990373887
 S    3.792366477271   -0.383620828394   -0.735900373887
 S    3.656926477271    0.257109171606    1.274149626113
 C    5.275006477271    1.078539171606    1.465739626113
 H    6.061446477271    0.319609171606    1.408839626113
 H    5.330596477271    1.538479171606    2.462779626113
 H    5.375376477271    1.849799171606    0.690799626113
RB    0.958106477271    1.240409171606    2.608329626113
RB    1.283026477271   -1.278470828394   -2.446390373887
 S   -5.817012272026    0.418007205992    0.589608614119
 S   -5.681571855730   -0.222724763393   -1.420447564086
 C   -7.418008570030    1.292626269137    0.548689223108
 H   -8.212936548284    0.559359673304    0.380735293643
 H   -7.599282237160    1.759957696122    1.527067304965
 H   -7.381860518218    2.062552433677   -0.233386721482
 C   -7.299652480926   -1.044155277092   -1.612037163044
 H   -8.086093590697   -0.285232882875   -1.555145577390
 H   -7.355240595390   -1.504098211886   -2.609076176655
 H   -7.400025357521   -1.815421068380   -0.837101907856
