22

 H    6.240689846548   -0.525860636778   -0.523244682321
 H    5.627029846548   -1.726460636778   -1.669584682321
 H    5.409609846548   -2.029060636778    0.090875317679
 C    5.445759846548   -1.259130636778   -0.691204682321
 S    3.844759846548   -0.384510636778   -0.732114682321
 S    3.709319846548    0.256219363222    1.277935317679
 C    5.327399846548    1.077649363222    1.469525317679
 H    6.113839846548    0.318719363222    1.412625317679
 H    5.382989846548    1.537589363222    2.466565317679
 H    5.427769846548    1.848909363222    0.694585317679
RB    1.010499846548    1.239519363222    2.612115317679
RB    1.335419846548   -1.279360636778   -2.442604682321
 S   -5.964070244840    0.420504724647    0.578982915960
 S   -5.828629828543   -0.220227244738   -1.431073262246
 C   -7.565066542843    1.295123787793    0.538063524949
 H   -8.359994521098    0.561857191959    0.370109595483
 H   -7.746340209973    1.762455214777    1.516441606806
 H   -7.528918491031    2.065049952333   -0.244012419642
 C   -7.446710453740   -1.041657758437   -1.622662861203
 H   -8.233151563510   -0.282735364219   -1.565771275550
 H   -7.502298568203   -1.501600693230   -2.619701874815
 H   -7.547083330335   -1.812923549724   -0.847727606015
