22

 H    6.293083215825   -0.526750445162   -0.519458990754
 H    5.679423215825   -1.727350445162   -1.665798990754
 H    5.462003215825   -2.029950445162    0.094661009246
 C    5.498153215825   -1.260020445162   -0.687418990754
 S    3.897153215825   -0.385400445162   -0.728328990754
 S    3.761713215825    0.255329554838    1.281721009246
 C    5.379793215825    1.076759554838    1.473311009246
 H    6.166233215825    0.317829554838    1.416411009246
 H    5.435383215825    1.536699554838    2.470351009246
 H    5.480163215825    1.848019554838    0.698371009246
RB    1.062893215825    1.238629554838    2.615901009246
RB    1.387813215825   -1.280250445162   -2.438818990754
 S   -6.111128217653    0.423002243302    0.568357217800
 S   -5.975687801357   -0.217729726082   -1.441698960405
 C   -7.712124515657    1.297621306448    0.527437826789
 H   -8.507052493911    0.564354710614    0.359483897324
 H   -7.893398182786    1.764952733433    1.505815908646
 H   -7.675976463845    2.067547470988   -0.254638117801
 C   -7.593768426553   -1.039160239781   -1.633288559363
 H   -8.380209536324   -0.280237845564   -1.576396973709
 H   -7.649356541017   -1.499103174575   -2.630327572974
 H   -7.694141303148   -1.810426031069   -0.858353304174
