13

 N   -1.720428629469    1.285913214445    0.000414213326
 C   -0.546689046386    2.013285405955    0.000101734156
 H   -0.664405906449    3.098603864999   -0.000014113403
 C   -1.766204602549   -0.107298577422    0.000029158757
 O   -2.817792771105   -0.741401891263    0.000372525861
 N   -0.505764061408   -0.690768633554    0.000446062079
 H   -0.495948264285   -1.709053745420    0.000418757984
 C    0.755490227825   -0.054713146591    0.000463156915
 O    1.789183155893   -0.723976981007   -0.000282508749
 C    0.674011436065    1.405833914799   -0.000036740532
 H    1.597411574367    1.982894173665   -0.000377417309
 H   -2.624165805417    1.745567335805    0.000212561726
NA    2.628603603868   -1.267459220698   -0.000888033841
