13

 N   -1.763307842666    1.313675333989    0.000445144714
 C   -0.589568259583    2.041047525499    0.000132665544
 H   -0.707285119646    3.126365984543    0.000016817985
 C   -1.809083815746   -0.079536457878    0.000060090145
 O   -2.860671984302   -0.713639771719    0.000403457249
 N   -0.548643274605   -0.663006514010    0.000476993467
 H   -0.538827477482   -1.681291625876    0.000449689372
 C    0.712611014628   -0.026951027047    0.000494088303
 O    1.746303942696   -0.696214861463   -0.000251577361
 C    0.631132222868    1.433596034343   -0.000005809144
 H    1.554532361170    2.010656293209   -0.000346485921
 H   -2.667045018614    1.773329455349    0.000243493114
NA    2.837550525064   -1.402741773061   -0.001038759981
