13

 N   -1.777600913732    1.322929373837    0.000455455177
 C   -0.603861330649    2.050301565347    0.000142976007
 H   -0.721578190712    3.135620024391    0.000027128448
 C   -1.823376886812   -0.070282418030    0.000070400608
 O   -2.874965055368   -0.704385731871    0.000413767712
 N   -0.562936345671   -0.653752474162    0.000487303930
 H   -0.553120548548   -1.672037586028    0.000459999835
 C    0.698317943562   -0.017696987199    0.000504398766
 O    1.732010871630   -0.686960821615   -0.000241266898
 C    0.616839151802    1.442850074191    0.000004501319
 H    1.540239290104    2.019910333057   -0.000336175458
 H   -2.681338089680    1.782583495197    0.000253803577
NA    2.907199498796   -1.447835957183   -0.001089002027
