13

 N   -1.791893984797    1.332183413685    0.000465765640
 C   -0.618154401714    2.059555605195    0.000153286470
 H   -0.735871261777    3.144874064239    0.000037438911
 C   -1.837669957877   -0.061028378182    0.000080711071
 O   -2.889258126433   -0.695131692023    0.000424078175
 N   -0.577229416736   -0.644498434314    0.000497614393
 H   -0.567413619613   -1.662783546180    0.000470310298
 C    0.684024872497   -0.008442947351    0.000514709229
 O    1.717717800565   -0.677706781767   -0.000230956435
 C    0.602546080737    1.452104114039    0.000014811782
 H    1.525946219039    2.029164372905   -0.000325864995
 H   -2.695631160745    1.791837535045    0.000264114040
NA    2.976848472528   -1.492930141304   -0.001139244074
