13

 N   -1.806187055863    1.341437453533    0.000476076102
 C   -0.632447472780    2.068809645043    0.000163596932
 H   -0.750164332843    3.154128104087    0.000047749373
 C   -1.851963028943   -0.051774338334    0.000091021533
 O   -2.903551197499   -0.685877652175    0.000434388637
 N   -0.591522487802   -0.635244394466    0.000507924855
 H   -0.581706690679   -1.653529506332    0.000480620760
 C    0.669731801431    0.000811092497    0.000525019691
 O    1.703424729499   -0.668452741919   -0.000220645973
 C    0.588253009671    1.461358153887    0.000025122244
 H    1.511653147973    2.038418412753   -0.000315554533
 H   -2.709924231811    1.801091574893    0.000274424502
NA    3.046497446260   -1.538024325425   -0.001189486121
