13

 N   -1.834773197994    1.359945533229    0.000496697027
 C   -0.661033614911    2.087317724739    0.000184217857
 H   -0.778750474974    3.172636183783    0.000068370298
 C   -1.880549171074   -0.033266258638    0.000111642458
 O   -2.932137339630   -0.667369572479    0.000455009562
 N   -0.620108629933   -0.616736314770    0.000528545780
 H   -0.610292832810   -1.635021426636    0.000501241685
 C    0.641145659300    0.019319172193    0.000545640616
 O    1.674838587368   -0.649944662223   -0.000200025048
 C    0.559666867540    1.479866233583    0.000045743169
 H    1.483067005842    2.056926492449   -0.000294933608
 H   -2.738510373942    1.819599654589    0.000295045427
NA    3.185795393724   -1.628212693667   -0.001289970214
