13

 N   -1.863359340125    1.378453612925    0.000517317953
 C   -0.689619757042    2.105825804435    0.000204838783
 H   -0.807336617105    3.191144263479    0.000088991224
 C   -1.909135313205   -0.014758178942    0.000132263384
 O   -2.960723481761   -0.648861492783    0.000475630488
 N   -0.648694772064   -0.598228235074    0.000549166706
 H   -0.638878974941   -1.616513346940    0.000521862611
 C    0.612559517169    0.037827251889    0.000566261542
 O    1.646252445237   -0.631436582527   -0.000179404122
 C    0.531080725409    1.498374313279    0.000066364095
 H    1.454480863711    2.075434572145   -0.000274312682
 H   -2.767096516073    1.838107734285    0.000315666353
NA    3.325093341188   -1.718401061910   -0.001390454307
