13

 N   -1.920531624387    1.415469772317    0.000558559803
 C   -0.746792041304    2.142841963827    0.000246080633
 H   -0.864508901367    3.228160422871    0.000130233074
 C   -1.966307597467    0.022257980450    0.000173505234
 O   -3.017895766023   -0.611845333391    0.000516872338
 N   -0.705867056326   -0.561212075682    0.000590408556
 H   -0.696051259203   -1.579497187548    0.000563104461
 C    0.555387232907    0.074843411281    0.000607503392
 O    1.589080160975   -0.594420423135   -0.000138162272
 C    0.473908441147    1.535390472671    0.000107605945
 H    1.397308579449    2.112450731537   -0.000233070832
 H   -2.824268800335    1.875123893677    0.000356908203
NA    3.603689236116   -1.898777798394   -0.001591422493
