13

 N   -2.034876192911    1.489502091101    0.000641043505
 C   -0.861136609828    2.216874282611    0.000328564335
 H   -0.978853469891    3.302192741655    0.000212716776
 C   -2.080652165991    0.096290299234    0.000255988936
 O   -3.132240334547   -0.537813014607    0.000599356040
 N   -0.820211624850   -0.487179756898    0.000672892258
 H   -0.810395827727   -1.505464868764    0.000645588163
 C    0.441042664383    0.148875730065    0.000689987094
 O    1.474735592451   -0.520388104351   -0.000055678570
 C    0.359563872623    1.609422791455    0.000190089647
 H    1.282964010925    2.186483050321   -0.000150587130
 H   -2.938613368859    1.949156212461    0.000439391905
NA    4.160881025973   -2.259531271363   -0.001993358866
