13

 N   -2.120634619305    1.545026330188    0.000702906280
 C   -0.946895036222    2.272398521698    0.000390427110
 H   -1.064611896285    3.357716980742    0.000274579551
 C   -2.166410592385    0.151814538321    0.000317851711
 O   -3.217998760941   -0.482288775520    0.000661218815
 N   -0.905970051244   -0.431655517811    0.000734755033
 H   -0.896154254121   -1.449940629677    0.000707450938
 C    0.355284237989    0.204399969152    0.000751849869
 O    1.388977166057   -0.464863865264    0.000006184205
 C    0.273805446229    1.664947030542    0.000251952422
 H    1.197205584531    2.242007289408   -0.000088724355
 H   -3.024371795253    2.004680451548    0.000501254680
NA    4.578774868365   -2.530096376090   -0.002294811145
