13

 N   -2.134927690370    1.554280370036    0.000713216743
 C   -0.961188107287    2.281652561546    0.000400737573
 H   -1.078904967350    3.366971020590    0.000284890014
 C   -2.180703663450    0.161068578169    0.000328162174
 O   -3.232291832006   -0.473034735672    0.000671529278
 N   -0.920263122309   -0.422401477963    0.000745065496
 H   -0.910447325186   -1.440686589829    0.000717761401
 C    0.340991166924    0.213654009000    0.000762160332
 O    1.374684094992   -0.455609825416    0.000016494668
 C    0.259512375164    1.674201070390    0.000262262885
 H    1.182912513466    2.251261329256   -0.000078413892
 H   -3.038664866318    2.013934491396    0.000511565143
NA    4.648423842097   -2.575190560211   -0.002345053192
