13

 N   -2.163513832501    1.572788449732    0.000733837668
 C   -0.989774249418    2.300160641242    0.000421358498
 H   -1.107491109481    3.385479100286    0.000305510939
 C   -2.209289805581    0.179576657865    0.000348783099
 O   -3.260877974137   -0.454526655976    0.000692150203
 N   -0.948849264440   -0.403893398267    0.000765686421
 H   -0.939033467317   -1.422178510133    0.000738382326
 C    0.312405024793    0.232162088696    0.000782781257
 O    1.346097952861   -0.437101745720    0.000037115593
 C    0.230926233033    1.692709150086    0.000282883810
 H    1.154326371335    2.269769408952   -0.000057792967
 H   -3.067251008449    2.032442571092    0.000532186068
NA    4.787721789561   -2.665378928454   -0.002445537285
