13

 N   -2.177806903567    1.582042489580    0.000744148131
 C   -1.004067320484    2.309414681090    0.000431668961
 H   -1.121784180547    3.394733140134    0.000315821402
 C   -2.223582876647    0.188830697713    0.000359093562
 O   -3.275171045203   -0.445272616128    0.000702460666
 N   -0.963142335506   -0.394639358419    0.000775996884
 H   -0.953326538383   -1.412924470285    0.000748692789
 C    0.298111953727    0.241416128544    0.000793091720
 O    1.331804881795   -0.427847705872    0.000047426056
 C    0.216633161967    1.701963189934    0.000293194273
 H    1.140033300269    2.279023448800   -0.000047482504
 H   -3.081544079515    2.041696610940    0.000542496531
NA    4.857370763293   -2.710473112575   -0.002495779332
