13

 N   -2.192099974632    1.591296529428    0.000754458594
 C   -1.018360391549    2.318668720938    0.000441979424
 H   -1.136077251612    3.403987179982    0.000326131865
 C   -2.237875947712    0.198084737561    0.000369404025
 O   -3.289464116268   -0.436018576280    0.000712771129
 N   -0.977435406571   -0.385385318571    0.000786307347
 H   -0.967619609448   -1.403670430437    0.000759003252
 C    0.283818882662    0.250670168392    0.000803402183
 O    1.317511810730   -0.418593666024    0.000057736519
 C    0.202340090902    1.711217229782    0.000303504736
 H    1.125740229204    2.288277488648   -0.000037172041
 H   -3.095837150580    2.050950650788    0.000552806994
NA    4.927019737025   -2.755567296696   -0.002546021378
