13

 N   -2.206393045698    1.600550569276    0.000764769056
 C   -1.032653462615    2.327922760786    0.000452289886
 H   -1.150370322678    3.413241219830    0.000336442327
 C   -2.252169018778    0.207338777409    0.000379714487
 O   -3.303757187334   -0.426764536432    0.000723081591
 N   -0.991728477637   -0.376131278723    0.000796617809
 H   -0.981912680514   -1.394416390589    0.000769313714
 C    0.269525811596    0.259924208240    0.000813712645
 O    1.303218739664   -0.409339626176    0.000068046981
 C    0.188047019836    1.720471269630    0.000313815198
 H    1.111447158138    2.297531528496   -0.000026861579
 H   -3.110130221646    2.060204690636    0.000563117456
NA    4.996668710757   -2.800661480817   -0.002596263425
