13

 N   -2.263565329960    1.637566728668    0.000806010907
 C   -1.089825746877    2.364938920178    0.000493531737
 H   -1.207542606940    3.450257379222    0.000377684178
 C   -2.309341303040    0.244354936801    0.000420956338
 O   -3.360929471596   -0.389748377040    0.000764323442
 N   -1.048900761899   -0.339115119331    0.000837859660
 H   -1.039084964776   -1.357400231197    0.000810555565
 C    0.212353527334    0.296940367632    0.000854954496
 O    1.246046455402   -0.372323466784    0.000109288832
 C    0.130874735574    1.757487429022    0.000355057049
 H    1.054274873876    2.334547687888    0.000014380272
 H   -3.167302505908    2.097220850028    0.000604359307
NA    5.275264605685   -2.981038217302   -0.002797231611
