13

 N   -2.277858401025    1.646820768516    0.000816321370
 C   -1.104118817942    2.374192960026    0.000503842200
 H   -1.221835678005    3.459511419070    0.000387994641
 C   -2.323634374105    0.253608976649    0.000431266801
 O   -3.375222542661   -0.380494337192    0.000774633905
 N   -1.063193832964   -0.329861079483    0.000848170123
 H   -1.053378035841   -1.348146191349    0.000820866028
 C    0.198060456269    0.306194407480    0.000865264959
 O    1.231753384337   -0.363069426936    0.000119599295
 C    0.116581664509    1.766741468870    0.000365367512
 H    1.039981802811    2.343801727736    0.000024690735
 H   -3.181595576973    2.106474889876    0.000614669770
NA    5.344913579417   -3.026132401423   -0.002847473658
