13

 N   -2.292151472091    1.656074808364    0.000826631832
 C   -1.118411889008    2.383446999874    0.000514152662
 H   -1.236128749071    3.468765458918    0.000398305103
 C   -2.337927445171    0.262863016497    0.000441577263
 O   -3.389515613727   -0.371240297344    0.000784944367
 N   -1.077486904030   -0.320607039635    0.000858480585
 H   -1.067671106907   -1.338892151501    0.000831176490
 C    0.183767385203    0.315448447328    0.000875575421
 O    1.217460313271   -0.353815387088    0.000129909757
 C    0.102288593443    1.775995508718    0.000375677974
 H    1.025688731745    2.353055767584    0.000035001197
 H   -3.195888648039    2.115728929724    0.000624980232
NA    5.414562553149   -3.071226585544   -0.002897715704
