13

 N   -2.306444543157    1.665328848212    0.000836942295
 C   -1.132704960074    2.392701039722    0.000524463125
 H   -1.250421820137    3.478019498766    0.000408615566
 C   -2.352220516237    0.272117056345    0.000451887726
 O   -3.403808684793   -0.361986257496    0.000795254830
 N   -1.091779975096   -0.311352999787    0.000868791048
 H   -1.081964177973   -1.329638111653    0.000841486953
 C    0.169474314137    0.324702487176    0.000885885884
 O    1.203167242205   -0.344561347240    0.000140220220
 C    0.087995522377    1.785249548566    0.000385988437
 H    1.011395660679    2.362309807432    0.000045311660
 H   -3.210181719105    2.124982969572    0.000635290695
NA    5.484211526881   -3.116320769665   -0.002947957751
