13

 N   -2.320737614222    1.674582888060    0.000847252758
 C   -1.146998031139    2.401955079570    0.000534773588
 H   -1.264714891202    3.487273538614    0.000418926029
 C   -2.366513587302    0.281371096193    0.000462198189
 O   -3.418101755858   -0.352732217648    0.000805565293
 N   -1.106073046161   -0.302098959939    0.000879101511
 H   -1.096257249038   -1.320384071805    0.000851797416
 C    0.155181243072    0.333956527024    0.000896196347
 O    1.188874171140   -0.335307307392    0.000150530683
 C    0.073702451312    1.794503588414    0.000396298900
 H    0.997102589614    2.371563847280    0.000055622123
 H   -3.224474790170    2.134237009420    0.000645601158
NA    5.553860500613   -3.161414953786   -0.002998199798
