13

 N   -2.349323756353    1.693090967756    0.000867873683
 C   -1.175584173270    2.420463159266    0.000555394513
 H   -1.293301033333    3.505781618310    0.000439546954
 C   -2.395099729433    0.299879175889    0.000482819114
 O   -3.446687897989   -0.334224137952    0.000826186218
 N   -1.134659188292   -0.283590880243    0.000899722436
 H   -1.124843391169   -1.301875992109    0.000872418341
 C    0.126595100941    0.352464606720    0.000916817272
 O    1.160288029009   -0.316799227696    0.000171151608
 C    0.045116309181    1.813011668110    0.000416919825
 H    0.968516447483    2.390071926976    0.000076243048
 H   -3.253060932301    2.152745089116    0.000666222083
NA    5.693158448077   -3.251603322029   -0.003098683891
