13

 N   -2.377909898484    1.711599047452    0.000888494608
 C   -1.204170315401    2.438971238962    0.000576015438
 H   -1.321887175464    3.524289698006    0.000460167879
 C   -2.423685871564    0.318387255585    0.000503440039
 O   -3.475274040120   -0.315716058256    0.000846807143
 N   -1.163245330423   -0.265082800547    0.000920343361
 H   -1.153429533300   -1.283367912413    0.000893039266
 C    0.098008958810    0.370972686416    0.000937438197
 O    1.131701886878   -0.298291148000    0.000191772533
 C    0.016530167050    1.831519747806    0.000437540750
 H    0.939930305352    2.408580006672    0.000096863973
 H   -3.281647074432    2.171253168812    0.000686843008
NA    5.832456395541   -3.341791690271   -0.003199167984
