13

 N   -2.392202969550    1.720853087300    0.000898805071
 C   -1.218463386467    2.448225278810    0.000586325901
 H   -1.336180246530    3.533543737854    0.000470478342
 C   -2.437978942630    0.327641295433    0.000513750502
 O   -3.489567111186   -0.306462018408    0.000857117606
 N   -1.177538401489   -0.255828760699    0.000930653824
 H   -1.167722604366   -1.274113872565    0.000903349729
 C    0.083715887744    0.380226726264    0.000947748660
 O    1.117408815812   -0.289037108152    0.000202082996
 C    0.002237095984    1.840773787654    0.000447851213
 H    0.925637234286    2.417834046520    0.000107174436
 H   -3.295940145498    2.180507208660    0.000697153471
NA    5.902105369273   -3.386885874392   -0.003249410030
