13

 N   -2.435082182746    1.748615206844    0.000929736459
 C   -1.261342599663    2.475987398354    0.000617257289
 H   -1.379059459726    3.561305857398    0.000501409730
 C   -2.480858155826    0.355403414977    0.000544681890
 O   -3.532446324382   -0.278699898864    0.000888048994
 N   -1.220417614685   -0.228066641155    0.000961585212
 H   -1.210601817562   -1.246351753021    0.000934281117
 C    0.040836674548    0.407988845808    0.000978680048
 O    1.074529602616   -0.261274988608    0.000233014384
 C   -0.040642117212    1.868535907198    0.000478782601
 H    0.882758021090    2.445596166064    0.000138105824
 H   -3.338819358694    2.208269328204    0.000728084859
NA    6.111052290469   -3.522168426756   -0.003400136170
