13

 N   -2.449375253812    1.757869246692    0.000940046921
 C   -1.275635670729    2.485241438202    0.000627567751
 H   -1.393352530792    3.570559897246    0.000511720192
 C   -2.495151226892    0.364657454825    0.000554992352
 O   -3.546739395448   -0.269445859016    0.000898359456
 N   -1.234710685751   -0.218812601307    0.000971895674
 H   -1.224894888628   -1.237097713173    0.000944591579
 C    0.026543603482    0.417242885656    0.000988990510
 O    1.060236531550   -0.252020948760    0.000243324846
 C   -0.054935188278    1.877789947046    0.000489093063
 H    0.868464950024    2.454850205912    0.000148416286
 H   -3.353112429760    2.217523368052    0.000738395321
NA    6.180701264201   -3.567262610877   -0.003450378217
