13

 N   -2.477961395943    1.776377326388    0.000960667847
 C   -1.304221812860    2.503749517898    0.000648188677
 H   -1.421938672923    3.589067976942    0.000532341118
 C   -2.523737369023    0.383165534521    0.000575613278
 O   -3.575325537579   -0.250937779320    0.000918980382
 N   -1.263296827882   -0.200304521611    0.000992516600
 H   -1.253481030759   -1.218589633477    0.000965212505
 C   -0.002042538649    0.435750965352    0.001009611436
 O    1.031650389419   -0.233512869064    0.000263945772
 C   -0.083521330409    1.896298026742    0.000509713989
 H    0.839878807893    2.473358285608    0.000169037212
 H   -3.381698571891    2.236031447748    0.000759016247
NA    6.319999211665   -3.657450979119   -0.003550862310
