13

 N   -2.506547538074    1.794885406083    0.000981288772
 C   -1.332807954991    2.522257597593    0.000668809602
 H   -1.450524815054    3.607576056637    0.000552962043
 C   -2.552323511154    0.401673614216    0.000596234203
 O   -3.603911679710   -0.232429699625    0.000939601307
 N   -1.291882970013   -0.181796441916    0.001013137525
 H   -1.282067172890   -1.200081553782    0.000985833430
 C   -0.030628680780    0.454259045047    0.001030232361
 O    1.003064247288   -0.215004789369    0.000284566697
 C   -0.112107472540    1.914806106437    0.000530334914
 H    0.811292665762    2.491866365303    0.000189658137
 H   -3.410284714022    2.254539527443    0.000779637172
NA    6.459297159129   -3.747639347361   -0.003651346403
