13

 N   -2.563719822336    1.831901565475    0.001022530623
 C   -1.389980239253    2.559273756985    0.000710051453
 H   -1.507697099316    3.644592216029    0.000594203894
 C   -2.609495795416    0.438689773608    0.000637476054
 O   -3.661083963972   -0.195413540233    0.000980843158
 N   -1.349055254275   -0.144780282524    0.001054379376
 H   -1.339239457152   -1.163065394390    0.001027075281
 C   -0.087800965042    0.491275204439    0.001071474212
 O    0.945891963026   -0.177988629977    0.000325808548
 C   -0.169279756802    1.951822265829    0.000571576765
 H    0.754120381500    2.528882524695    0.000230899988
 H   -3.467456998284    2.291555686835    0.000820879023
NA    6.737893054057   -3.928016083846   -0.003852314589
