13

 N   -2.592305964467    1.850409645171    0.001043151548
 C   -1.418566381384    2.577781836681    0.000730672378
 H   -1.536283241447    3.663100295725    0.000614824819
 C   -2.638081937547    0.457197853304    0.000658096979
 O   -3.689670106103   -0.176905460537    0.001001464083
 N   -1.377641396406   -0.126272202828    0.001075000301
 H   -1.367825599283   -1.144557314694    0.001047696206
 C   -0.116387107173    0.509783284135    0.001092095137
 O    0.917305820895   -0.159480550281    0.000346429473
 C   -0.197865898933    1.970330345525    0.000592197690
 H    0.725534239369    2.547390604391    0.000251520913
 H   -3.496043140415    2.310063766531    0.000841499948
NA    6.877191001522   -4.018204452088   -0.003952798683
