13

 N   -2.620892106598    1.868917724867    0.001063772473
 C   -1.447152523515    2.596289916377    0.000751293303
 H   -1.564869383578    3.681608375421    0.000635445744
 C   -2.666668079678    0.475705933000    0.000678717904
 O   -3.718256248234   -0.158397380841    0.001022085008
 N   -1.406227538537   -0.107764123132    0.001095621226
 H   -1.396411741414   -1.126049234998    0.001068317131
 C   -0.144973249304    0.528291363831    0.001112716062
 O    0.888719678764   -0.140972470585    0.000367050398
 C   -0.226452041064    1.988838425221    0.000612818615
 H    0.696948097238    2.565898684087    0.000272141838
 H   -3.524629282546    2.328571846227    0.000862120873
NA    7.016488948986   -4.108392820331   -0.004053282776
