13

 N   -2.678064390861    1.905933884259    0.001105014324
 C   -1.504324807778    2.633306075769    0.000792535154
 H   -1.622041667841    3.718624534813    0.000676687595
 C   -2.723840363941    0.512722092392    0.000719959755
 O   -3.775428532497   -0.121381221449    0.001063326859
 N   -1.463399822800   -0.070747963740    0.001136863077
 H   -1.453584025677   -1.089033075606    0.001109558982
 C   -0.202145533567    0.565307523223    0.001153957913
 O    0.831547394501   -0.103956311193    0.000408292249
 C   -0.283624325327    2.025854584613    0.000654060466
 H    0.639775812975    2.602914843479    0.000313383689
 H   -3.581801566809    2.365588005619    0.000903362724
NA    7.295084843914   -4.288769556815   -0.004254250962
