13

 N   -2.692357461926    1.915187924107    0.001115324787
 C   -1.518617878843    2.642560115617    0.000802845617
 H   -1.636334738906    3.727878574661    0.000686998058
 C   -2.738133435006    0.521976132240    0.000730270218
 O   -3.789721603562   -0.112127181601    0.001073637322
 N   -1.477692893865   -0.061493923892    0.001147173540
 H   -1.467877096742   -1.079779035758    0.001119869445
 C   -0.216438604632    0.574561563071    0.001164268376
 O    0.817254323436   -0.094702271345    0.000418602712
 C   -0.297917396392    2.035108624461    0.000664370929
 H    0.625482741910    2.612168883327    0.000323694152
 H   -3.596094637874    2.374842045467    0.000913673187
NA    7.364733817646   -4.333863740936   -0.004304493009
