13

 N   -2.792408959385    1.979966203043    0.001187498025
 C   -1.618669376302    2.707338394553    0.000875018855
 H   -1.736386236365    3.792656853597    0.000759171296
 C   -2.838184932465    0.586754411176    0.000802443456
 O   -3.889773101021   -0.047348902665    0.001145810560
 N   -1.577744391324    0.003284355044    0.001219346778
 H   -1.567928594201   -1.015000756822    0.001192042683
 C   -0.316490102091    0.639339842007    0.001236441614
 O    0.717202825977   -0.029923992409    0.000490775950
 C   -0.397968893851    2.099886903397    0.000736544167
 H    0.525431244451    2.676947162263    0.000395867390
 H   -3.696146135333    2.439620324403    0.000985846425
NA    7.852276633770   -4.649523029784   -0.004656187335
