13

 N   -2.806702030450    1.989220242891    0.001197808488
 C   -1.632962447367    2.716592434401    0.000885329318
 H   -1.750679307430    3.801910893445    0.000769481759
 C   -2.852478003530    0.596008451024    0.000812753919
 O   -3.904066172086   -0.038094862817    0.001156121023
 N   -1.592037462389    0.012538394892    0.001229657241
 H   -1.582221665266   -1.005746716974    0.001202353146
 C   -0.330783173156    0.648593881855    0.001246752077
 O    0.702909754912   -0.020669952561    0.000501086413
 C   -0.412261964916    2.109140943245    0.000746854630
 H    0.511138173386    2.686201202111    0.000406177853
 H   -3.710439206398    2.448874364251    0.000996156888
NA    7.921925607502   -4.694617213906   -0.004706429381
