13

 N   -2.835288172582    2.007728322587    0.001218429413
 C   -1.661548589499    2.735100514097    0.000905950243
 H   -1.779265449562    3.820418973141    0.000790102684
 C   -2.881064145662    0.614516530720    0.000833374844
 O   -3.932652314218   -0.019586783121    0.001176741948
 N   -1.620623604521    0.031046474588    0.001250278166
 H   -1.610807807398   -0.987238637278    0.001222974071
 C   -0.359369315288    0.667101961551    0.001267373002
 O    0.674323612780   -0.002161872865    0.000521707338
 C   -0.440848107048    2.127649022941    0.000767475555
 H    0.482552031254    2.704709281807    0.000426798778
 H   -3.739025348530    2.467382443947    0.001016777813
NA    8.061223554966   -4.784805582148   -0.004806913475
