13

 N   -2.878167385778    2.035490442131    0.001249360801
 C   -1.704427802695    2.762862633641    0.000936881631
 H   -1.822144662758    3.848181092685    0.000821034072
 C   -2.923943358858    0.642278650264    0.000864306232
 O   -3.975531527414    0.008175336423    0.001207673336
 N   -1.663502817717    0.058808594132    0.001281209554
 H   -1.653687020594   -0.959476517734    0.001253905459
 C   -0.402248528484    0.694864081095    0.001298304390
 O    0.631444399584    0.025600246679    0.000552638726
 C   -0.483727320244    2.155411142485    0.000798406943
 H    0.439672818058    2.732471401351    0.000457730166
 H   -3.781904561726    2.495144563491    0.001047709201
NA    8.270170476162   -4.920088134511   -0.004957639614
