13

 N   -2.906753527909    2.053998521827    0.001269981726
 C   -1.733013944826    2.781370713337    0.000957502556
 H   -1.850730804889    3.866689172381    0.000841654997
 C   -2.952529500989    0.660786729960    0.000884927157
 O   -4.004117669545    0.026683416119    0.001228294261
 N   -1.692088959848    0.077316673828    0.001301830479
 H   -1.682273162725   -0.940968438038    0.001274526384
 C   -0.430834670615    0.713372160791    0.001318925315
 O    0.602858257453    0.044108326375    0.000573259651
 C   -0.512313462375    2.173919222181    0.000819027868
 H    0.411086675927    2.750979481047    0.000478351091
 H   -3.810490703857    2.513652643187    0.001068330126
NA    8.409468423626   -5.010276502754   -0.005058123707
