13

 N   -2.921046598975    2.063252561675    0.001280292189
 C   -1.747307015892    2.790624753185    0.000967813019
 H   -1.865023875955    3.875943212229    0.000851965460
 C   -2.966822572055    0.670040769808    0.000895237620
 O   -4.018410740611    0.035937455967    0.001238604724
 N   -1.706382030914    0.086570713676    0.001312140942
 H   -1.696566233791   -0.931714398190    0.001284836847
 C   -0.445127741681    0.722626200639    0.001329235778
 O    0.588565186387    0.053362366223    0.000583570114
 C   -0.526606533441    2.183173262029    0.000829338331
 H    0.396793604861    2.760233520895    0.000488661554
 H   -3.824783774923    2.522906683035    0.001078640589
NA    8.479117397358   -5.055370686875   -0.005108365754
