13

 N   -2.992511954302    2.109522760914    0.001331844502
 C   -1.818772371219    2.836894952424    0.001019365332
 H   -1.936489231282    3.922213411468    0.000903517773
 C   -3.038287927382    0.716310969047    0.000946789933
 O   -4.089876095938    0.082207655206    0.001290157037
 N   -1.777847386241    0.132840912915    0.001363693255
 H   -1.768031589118   -0.885444198951    0.001336389160
 C   -0.516593097008    0.768896399878    0.001380788091
 O    0.517099831060    0.099632565462    0.000635122427
 C   -0.598071888768    2.229443461268    0.000880890644
 H    0.325328249534    2.806503720134    0.000540213867
 H   -3.896249130250    2.569176882274    0.001130192902
NA    8.827362266018   -5.280841607481   -0.005359575987
