27

 C   -1.265251696334   -4.990229001907    0.000000000000
 H   -1.252921696334   -6.081629001907    0.000000000000
 C   -0.055991696334   -4.274019001907    0.000000000000
 H    0.898808303666   -4.803479001907    0.000000000000
 C   -2.489961696334   -4.300989001907    0.000000000000
 H   -3.432241696334   -4.852569001907    0.000000000000
 C   -0.068641696334   -2.868589001907    0.000000000000
 H    0.875628303666   -2.313799001907    0.000000000000
 C   -2.515661696334   -2.895169001907    0.000000000000
 H   -3.467751696334   -2.355999001907    0.000000000000
 C   -1.299881696334   -2.205579001907    0.000000000000
 O   -1.273431696334   -0.788829001907    0.000000000000
 H   -2.185401696334   -0.461079001907    0.000000000000
LI    0.314818303666    0.195020998093    0.000000000000
 O    1.249939276338    0.774286711276    0.000000000000
 H    2.161910789962    0.446530697240    0.000000000000
 C    1.276389745504    2.191029818823    0.000000000000
 C    0.045156977751    2.854044472968    0.000000000000
 H   -0.899116512467    2.299257386085    0.000000000000
 C    0.032506967937    4.259467543667    0.000000000000
 H   -0.922295316006    4.788935358531    0.000000000000
 C    1.241764023679    4.975679081370    0.000000000000
 H    1.229434965060    6.067079445678    0.000000000000
 C    2.466477865038    4.286435639337    0.000000000000
 H    3.408759845501    4.838016179053    0.000000000000
 C    2.492178971163    2.880610551801    0.000000000000
 H    3.444269559627    2.341435610842    0.000000000000
