27

 C   -1.470136465023   -5.117145973212    0.000000000000
 H   -1.457806465023   -6.208545973212    0.000000000000
 C   -0.260876465023   -4.400935973212    0.000000000000
 H    0.693923534977   -4.930395973212    0.000000000000
 C   -2.694846465023   -4.427905973212    0.000000000000
 H   -3.637126465023   -4.979485973212    0.000000000000
 C   -0.273526465023   -2.995505973212    0.000000000000
 H    0.670743534977   -2.440715973212    0.000000000000
 C   -2.720546465023   -3.022085973212    0.000000000000
 H   -3.672636465023   -2.482915973212    0.000000000000
 C   -1.504766465023   -2.332495973212    0.000000000000
 O   -1.478316465023   -0.915745973212    0.000000000000
 H   -2.390286465023   -0.587995973212    0.000000000000
LI    0.109933534977    0.068104026788    0.000000000000
 O    1.470109495226    0.910672336873    0.000000000000
 H    2.382081008851    0.582916322836    0.000000000000
 C    1.496559964392    2.327415444419    0.000000000000
 C    0.265327196639    2.990430098565    0.000000000000
 H   -0.678946293579    2.435643011682    0.000000000000
 C    0.252677186826    4.395853169263    0.000000000000
 H   -0.702125097117    4.925320984127    0.000000000000
 C    1.461934242568    5.112064706966    0.000000000000
 H    1.449605183949    6.203465071275    0.000000000000
 C    2.686648083926    4.422821264933    0.000000000000
 H    3.628930064390    4.974401804649    0.000000000000
 C    2.712349190052    3.016996177398    0.000000000000
 H    3.664439778516    2.477821236439    0.000000000000
