27

 C   -1.511113418761   -5.142529367473    0.000000000000
 H   -1.498783418761   -6.233929367473    0.000000000000
 C   -0.301853418761   -4.426319367473    0.000000000000
 H    0.652946581239   -4.955779367473    0.000000000000
 C   -2.735823418761   -4.453289367473    0.000000000000
 H   -3.678103418761   -5.004869367473    0.000000000000
 C   -0.314503418761   -3.020889367473    0.000000000000
 H    0.629766581239   -2.466099367473    0.000000000000
 C   -2.761523418761   -3.047469367473    0.000000000000
 H   -3.713613418761   -2.508299367473    0.000000000000
 C   -1.545743418761   -2.357879367473    0.000000000000
 O   -1.519293418761   -0.941129367473    0.000000000000
 H   -2.431263418761   -0.613379367473    0.000000000000
LI    0.068956581239    0.042720632527    0.000000000000
 O    1.514143539004    0.937949461992    0.000000000000
 H    2.426115052629    0.610193447956    0.000000000000
 C    1.540594008170    2.354692569539    0.000000000000
 C    0.309361240417    3.017707223684    0.000000000000
 H   -0.634912249801    2.462920136801    0.000000000000
 C    0.296711230604    4.423130294382    0.000000000000
 H   -0.658091053339    4.952598109247    0.000000000000
 C    1.505968286346    5.139341832085    0.000000000000
 H    1.493639227726    6.230742196394    0.000000000000
 C    2.730682127704    4.450098390052    0.000000000000
 H    3.672964108167    5.001678929769    0.000000000000
 C    2.756383233829    3.044273302517    0.000000000000
 H    3.708473822294    2.505098361558    0.000000000000
