27

 C   -1.552090372499   -5.167912761734    0.000000000000
 H   -1.539760372499   -6.259312761734    0.000000000000
 C   -0.342830372499   -4.451702761734    0.000000000000
 H    0.611969627501   -4.981162761734    0.000000000000
 C   -2.776800372499   -4.478672761734    0.000000000000
 H   -3.719080372499   -5.030252761734    0.000000000000
 C   -0.355480372499   -3.046272761734    0.000000000000
 H    0.588789627501   -2.491482761734    0.000000000000
 C   -2.802500372499   -3.072852761734    0.000000000000
 H   -3.754590372499   -2.533682761734    0.000000000000
 C   -1.586720372499   -2.383262761734    0.000000000000
 O   -1.560270372499   -0.966512761734    0.000000000000
 H   -2.472240372499   -0.638762761734    0.000000000000
LI    0.027979627501    0.017337238266    0.000000000000
 O    1.558177582782    0.965226587111    0.000000000000
 H    2.470149096406    0.637470573075    0.000000000000
 C    1.584628051948    2.381969694658    0.000000000000
 C    0.353395284195    3.044984348803    0.000000000000
 H   -0.590878206023    2.490197261920    0.000000000000
 C    0.340745274381    4.450407419502    0.000000000000
 H   -0.614057009562    4.979875234366    0.000000000000
 C    1.550002330123    5.166618957205    0.000000000000
 H    1.537673271504    6.258019321513    0.000000000000
 C    2.774716171482    4.477375515172    0.000000000000
 H    3.716998151945    5.028956054888    0.000000000000
 C    2.800417277607    3.071550427636    0.000000000000
 H    3.752507866071    2.532375486677    0.000000000000
