27

 C   -4.912200579006   -7.249351091135    0.000000000000
 H   -4.899870579006   -8.340751091135    0.000000000000
 C   -3.702940579006   -6.533141091135    0.000000000000
 H   -2.748140579006   -7.062601091135    0.000000000000
 C   -6.136910579006   -6.560111091135    0.000000000000
 H   -7.079190579006   -7.111691091135    0.000000000000
 C   -3.715590579006   -5.127711091135    0.000000000000
 H   -2.771320579006   -4.572921091135    0.000000000000
 C   -6.162610579006   -5.154291091135    0.000000000000
 H   -7.114700579006   -4.615121091135    0.000000000000
 C   -4.946830579006   -4.464701091135    0.000000000000
 O   -4.920380579006   -3.047951091135    0.000000000000
 H   -5.832350579006   -2.720201091135    0.000000000000
LI   -3.332130579006   -2.064101091135    0.000000000000
 O    5.168969172555    3.201950846893    0.000000000000
 H    6.080940686179    2.874194832856    0.000000000000
 C    5.195419641721    4.618693954439    0.000000000000
 C    3.964186873968    5.281708608585    0.000000000000
 H    3.019913383750    4.726921521702    0.000000000000
 C    3.951536864154    6.687131679283    0.000000000000
 H    2.996734580211    7.216599494148    0.000000000000
 C    5.160793919896    7.403343216986    0.000000000000
 H    5.148464861277    8.494743581295    0.000000000000
 C    6.385507761255    6.714099774953    0.000000000000
 H    7.327789741718    7.265680314670    0.000000000000
 C    6.411208867380    5.308274687418    0.000000000000
 H    7.363299455844    4.769099746459    0.000000000000
