27

 C   -1.634044279975   -5.218679550256    0.000000000000
 H   -1.621714279975   -6.310079550256    0.000000000000
 C   -0.424784279975   -4.502469550256    0.000000000000
 H    0.530015720025   -5.031929550256    0.000000000000
 C   -2.858754279975   -4.529439550256    0.000000000000
 H   -3.801034279975   -5.081019550256    0.000000000000
 C   -0.437434279975   -3.097039550256    0.000000000000
 H    0.506835720025   -2.542249550256    0.000000000000
 C   -2.884454279975   -3.123619550256    0.000000000000
 H   -3.836544279975   -2.584449550256    0.000000000000
 C   -1.668674279975   -2.434029550256    0.000000000000
 O   -1.642224279975   -1.017279550256    0.000000000000
 H   -2.554194279975   -0.689529550256    0.000000000000
LI   -0.053974279975   -0.033429550256    0.000000000000
 O    1.646245670337    1.019780837350    0.000000000000
 H    2.558217183962    0.692024823313    0.000000000000
 C    1.672696139503    2.436523944896    0.000000000000
 C    0.441463371750    3.099538599042    0.000000000000
 H   -0.502810118468    2.544751512159    0.000000000000
 C    0.428813361937    4.504961669740    0.000000000000
 H   -0.525988922006    5.034429484605    0.000000000000
 C    1.638070417679    5.221173207443    0.000000000000
 H    1.625741359059    6.312573571752    0.000000000000
 C    2.862784259037    4.531929765410    0.000000000000
 H    3.805066239501    5.083510305127    0.000000000000
 C    2.888485365163    3.126104677875    0.000000000000
 H    3.840575953627    2.586929736916    0.000000000000
