27

 C   -1.675021233713   -5.244062944517    0.000000000000
 H   -1.662691233713   -6.335462944517    0.000000000000
 C   -0.465761233713   -4.527852944517    0.000000000000
 H    0.489038766287   -5.057312944517    0.000000000000
 C   -2.899731233713   -4.554822944517    0.000000000000
 H   -3.842011233713   -5.106402944517    0.000000000000
 C   -0.478411233713   -3.122422944517    0.000000000000
 H    0.465858766287   -2.567632944517    0.000000000000
 C   -2.925431233713   -3.149002944517    0.000000000000
 H   -3.877521233713   -2.609832944517    0.000000000000
 C   -1.709651233713   -2.459412944517    0.000000000000
 O   -1.683201233713   -1.042662944517    0.000000000000
 H   -2.595171233713   -0.714912944517    0.000000000000
LI   -0.094951233713   -0.058812944517    0.000000000000
 O    1.690279714115    1.047057962469    0.000000000000
 H    2.602251227740    0.719301948433    0.000000000000
 C    1.716730183281    2.463801070016    0.000000000000
 C    0.485497415528    3.126815724161    0.000000000000
 H   -0.458776074690    2.572028637278    0.000000000000
 C    0.472847405715    4.532238794860    0.000000000000
 H   -0.481954878228    5.061706609724    0.000000000000
 C    1.682104461456    5.248450332562    0.000000000000
 H    1.669775402837    6.339850696871    0.000000000000
 C    2.906818302815    4.559206890530    0.000000000000
 H    3.849100283278    5.110787430246    0.000000000000
 C    2.932519408940    3.153381802994    0.000000000000
 H    3.884609997404    2.614206862035    0.000000000000
