27

 C   -1.715998187451   -5.269446338778    0.000000000000
 H   -1.703668187451   -6.360846338778    0.000000000000
 C   -0.506738187451   -4.553236338778    0.000000000000
 H    0.448061812549   -5.082696338778    0.000000000000
 C   -2.940708187451   -4.580206338778    0.000000000000
 H   -3.882988187451   -5.131786338778    0.000000000000
 C   -0.519388187451   -3.147806338778    0.000000000000
 H    0.424881812549   -2.593016338778    0.000000000000
 C   -2.966408187451   -3.174386338778    0.000000000000
 H   -3.918498187451   -2.635216338778    0.000000000000
 C   -1.750628187451   -2.484796338778    0.000000000000
 O   -1.724178187451   -1.068046338778    0.000000000000
 H   -2.636148187451   -0.740296338778    0.000000000000
LI   -0.135928187451   -0.084196338778    0.000000000000
 O    1.734313757893    1.074335087588    0.000000000000
 H    2.646285271517    0.746579073552    0.000000000000
 C    1.760764227059    2.491078195135    0.000000000000
 C    0.529531459306    3.154092849280    0.000000000000
 H   -0.414742030912    2.599305762398    0.000000000000
 C    0.516881449492    4.559515919979    0.000000000000
 H   -0.437920834451    5.088983734843    0.000000000000
 C    1.726138505234    5.275727457682    0.000000000000
 H    1.713809446615    6.367127821991    0.000000000000
 C    2.950852346592    4.586484015649    0.000000000000
 H    3.893134327056    5.138064555365    0.000000000000
 C    2.976553452718    3.180658928113    0.000000000000
 H    3.928644041182    2.641483987155    0.000000000000
