27

 C   -1.756975141189   -5.294829733039    0.000000000000
 H   -1.744645141189   -6.386229733039    0.000000000000
 C   -0.547715141189   -4.578619733039    0.000000000000
 H    0.407084858811   -5.108079733039    0.000000000000
 C   -2.981685141189   -4.605589733039    0.000000000000
 H   -3.923965141189   -5.157169733039    0.000000000000
 C   -0.560365141189   -3.173189733039    0.000000000000
 H    0.383904858811   -2.618399733039    0.000000000000
 C   -3.007385141189   -3.199769733039    0.000000000000
 H   -3.959475141189   -2.660599733039    0.000000000000
 C   -1.791605141189   -2.510179733039    0.000000000000
 O   -1.765155141189   -1.093429733039    0.000000000000
 H   -2.677125141189   -0.765679733039    0.000000000000
LI   -0.176905141189   -0.109579733039    0.000000000000
 O    1.778347801670    1.101612212708    0.000000000000
 H    2.690319315295    0.773856198671    0.000000000000
 C    1.804798270836    2.518355320254    0.000000000000
 C    0.573565503083    3.181369974400    0.000000000000
 H   -0.370707987134    2.626582887517    0.000000000000
 C    0.560915493270    4.586793045098    0.000000000000
 H   -0.393886790673    5.116260859962    0.000000000000
 C    1.770172549012    5.303004582801    0.000000000000
 H    1.757843490393    6.394404947110    0.000000000000
 C    2.994886390370    4.613761140768    0.000000000000
 H    3.937168370834    5.165341680484    0.000000000000
 C    3.020587496496    3.207936053233    0.000000000000
 H    3.972678084960    2.668761112274    0.000000000000
