27

 C   -1.797952094927   -5.320213127300    0.000000000000
 H   -1.785622094927   -6.411613127300    0.000000000000
 C   -0.588692094927   -4.604003127300    0.000000000000
 H    0.366107905073   -5.133463127300    0.000000000000
 C   -3.022662094927   -4.630973127300    0.000000000000
 H   -3.964942094927   -5.182553127300    0.000000000000
 C   -0.601342094927   -3.198573127300    0.000000000000
 H    0.342927905073   -2.643783127300    0.000000000000
 C   -3.048362094927   -3.225153127300    0.000000000000
 H   -4.000452094927   -2.685983127300    0.000000000000
 C   -1.832582094927   -2.535563127300    0.000000000000
 O   -1.806132094927   -1.118813127300    0.000000000000
 H   -2.718102094927   -0.791063127300    0.000000000000
LI   -0.217882094927   -0.134963127300    0.000000000000
 O    1.822381845448    1.128889337827    0.000000000000
 H    2.734353359073    0.801133323791    0.000000000000
 C    1.848832314614    2.545632445374    0.000000000000
 C    0.617599546861    3.208647099519    0.000000000000
 H   -0.326673943357    2.653860012636    0.000000000000
 C    0.604949537048    4.614070170217    0.000000000000
 H   -0.349852746895    5.143537985082    0.000000000000
 C    1.814206592790    5.330281707920    0.000000000000
 H    1.801877534170    6.421682072229    0.000000000000
 C    3.038920434148    4.641038265887    0.000000000000
 H    3.981202414611    5.192618805604    0.000000000000
 C    3.064621540274    3.235213178352    0.000000000000
 H    4.016712128738    2.696038237393    0.000000000000
