27

 C   -2.043813817354   -5.472513492866    0.000000000000
 H   -2.031483817354   -6.563913492866    0.000000000000
 C   -0.834553817354   -4.756303492866    0.000000000000
 H    0.120246182646   -5.285763492866    0.000000000000
 C   -3.268523817354   -4.783273492866    0.000000000000
 H   -4.210803817354   -5.334853492866    0.000000000000
 C   -0.847203817354   -3.350873492866    0.000000000000
 H    0.097066182646   -2.796083492866    0.000000000000
 C   -3.294223817354   -3.377453492866    0.000000000000
 H   -4.246313817354   -2.838283492866    0.000000000000
 C   -2.078443817354   -2.687863492866    0.000000000000
 O   -2.051993817354   -1.271113492866    0.000000000000
 H   -2.963963817354   -0.943363492866    0.000000000000
LI   -0.463743817354   -0.287263492866    0.000000000000
 O    2.086586108114    1.292552088543    0.000000000000
 H    2.998557621739    0.964796074506    0.000000000000
 C    2.113036577280    2.709295196089    0.000000000000
 C    0.881803809527    3.372309850235    0.000000000000
 H   -0.062469680690    2.817522763352    0.000000000000
 C    0.869153799714    4.777732920933    0.000000000000
 H   -0.085648484229    5.307200735797    0.000000000000
 C    2.078410855456    5.493944458636    0.000000000000
 H    2.066081796837    6.585344822945    0.000000000000
 C    3.303124696814    4.804701016603    0.000000000000
 H    4.245406677278    5.356281556319    0.000000000000
 C    3.328825802940    3.398875929068    0.000000000000
 H    4.280916391404    2.859700988109    0.000000000000
