27

 C   -2.125767724830   -5.523280281388    0.000000000000
 H   -2.113437724830   -6.614680281388    0.000000000000
 C   -0.916507724830   -4.807070281388    0.000000000000
 H    0.038292275170   -5.336530281388    0.000000000000
 C   -3.350477724830   -4.834040281388    0.000000000000
 H   -4.292757724830   -5.385620281388    0.000000000000
 C   -0.929157724830   -3.401640281388    0.000000000000
 H    0.015112275170   -2.846850281388    0.000000000000
 C   -3.376177724830   -3.428220281388    0.000000000000
 H   -4.328267724830   -2.889050281388    0.000000000000
 C   -2.160397724830   -2.738630281388    0.000000000000
 O   -2.133947724830   -1.321880281388    0.000000000000
 H   -3.045917724830   -0.994130281388    0.000000000000
LI   -0.545697724830   -0.338030281388    0.000000000000
 O    2.174654195670    1.347106338781    0.000000000000
 H    3.086625709294    1.019350324745    0.000000000000
 C    2.201104664836    2.763849446328    0.000000000000
 C    0.969871897083    3.426864100473    0.000000000000
 H    0.025598406865    2.872077013590    0.000000000000
 C    0.957221887270    4.832287171172    0.000000000000
 H    0.002419603327    5.361754986036    0.000000000000
 C    2.166478943011    5.548498708875    0.000000000000
 H    2.154149884392    6.639899073183    0.000000000000
 C    3.391192784370    4.859255266842    0.000000000000
 H    4.333474764833    5.410835806558    0.000000000000
 C    3.416893890495    3.453430179306    0.000000000000
 H    4.368984478959    2.914255238347    0.000000000000
