27

 C   -2.330652493519   -5.650197252693    0.000000000000
 H   -2.318322493519   -6.741597252693    0.000000000000
 C   -1.121392493519   -4.933987252693    0.000000000000
 H   -0.166592493519   -5.463447252693    0.000000000000
 C   -3.555362493519   -4.960957252693    0.000000000000
 H   -4.497642493519   -5.512537252693    0.000000000000
 C   -1.134042493519   -3.528557252693    0.000000000000
 H   -0.189772493519   -2.973767252693    0.000000000000
 C   -3.581062493519   -3.555137252693    0.000000000000
 H   -4.533152493519   -3.015967252693    0.000000000000
 C   -2.365282493519   -2.865547252693    0.000000000000
 O   -2.338832493519   -1.448797252693    0.000000000000
 H   -3.250802493519   -1.121047252693    0.000000000000
LI   -0.750582493519   -0.464947252693    0.000000000000
 O    2.394824414558    1.483491964378    0.000000000000
 H    3.306795928183    1.155735950341    0.000000000000
 C    2.421274883724    2.900235071924    0.000000000000
 C    1.190042115971    3.563249726070    0.000000000000
 H    0.245768625754    3.008462639187    0.000000000000
 C    1.177392106158    4.968672796768    0.000000000000
 H    0.222589822215    5.498140611632    0.000000000000
 C    2.386649161900    5.684884334471    0.000000000000
 H    2.374320103281    6.776284698780    0.000000000000
 C    3.611363003258    4.995640892438    0.000000000000
 H    4.553644983722    5.547221432154    0.000000000000
 C    3.637064109384    3.589815804903    0.000000000000
 H    4.589154697848    3.050640863944    0.000000000000
