27

 C   -2.453583354733   -5.726347435476    0.000000000000
 H   -2.441253354733   -6.817747435476    0.000000000000
 C   -1.244323354733   -5.010137435476    0.000000000000
 H   -0.289523354733   -5.539597435476    0.000000000000
 C   -3.678293354733   -5.037107435476    0.000000000000
 H   -4.620573354733   -5.588687435476    0.000000000000
 C   -1.256973354733   -3.604707435476    0.000000000000
 H   -0.312703354733   -3.049917435476    0.000000000000
 C   -3.703993354733   -3.631287435476    0.000000000000
 H   -4.656083354733   -3.092117435476    0.000000000000
 C   -2.488213354733   -2.941697435476    0.000000000000
 O   -2.461763354733   -1.524947435476    0.000000000000
 H   -3.373733354733   -1.197197435476    0.000000000000
LI   -0.873513354733   -0.541097435476    0.000000000000
 O    2.526926545892    1.565323339736    0.000000000000
 H    3.438898059516    1.237567325699    0.000000000000
 C    2.553377015058    2.982066447282    0.000000000000
 C    1.322144247305    3.645081101427    0.000000000000
 H    0.377870757087    3.090294014545    0.000000000000
 C    1.309494237491    5.050504172126    0.000000000000
 H    0.354691953548    5.579971986990    0.000000000000
 C    2.518751293233    5.766715709829    0.000000000000
 H    2.506422234614    6.858116074138    0.000000000000
 C    3.743465134591    5.077472267796    0.000000000000
 H    4.685747115055    5.629052807512    0.000000000000
 C    3.769166240717    3.671647180261    0.000000000000
 H    4.721256829181    3.132472239302    0.000000000000
