27

 C   -2.617491169684   -5.827881012520    0.000000000000
 H   -2.605161169684   -6.919281012520    0.000000000000
 C   -1.408231169684   -5.111671012520    0.000000000000
 H   -0.453431169684   -5.641131012520    0.000000000000
 C   -3.842201169684   -5.138641012520    0.000000000000
 H   -4.784481169684   -5.690221012520    0.000000000000
 C   -1.420881169684   -3.706241012520    0.000000000000
 H   -0.476611169684   -3.151451012520    0.000000000000
 C   -3.867901169684   -3.732821012520    0.000000000000
 H   -4.819991169684   -3.193651012520    0.000000000000
 C   -2.652121169684   -3.043231012520    0.000000000000
 O   -2.625671169684   -1.626481012520    0.000000000000
 H   -3.537641169684   -1.298731012520    0.000000000000
LI   -1.037421169684   -0.642631012520    0.000000000000
 O    2.703062721002    1.674431840213    0.000000000000
 H    3.615034234627    1.346675826176    0.000000000000
 C    2.729513190168    3.091174947759    0.000000000000
 C    1.498280422415    3.754189601905    0.000000000000
 H    0.554006932198    3.199402515022    0.000000000000
 C    1.485630412602    5.159612672603    0.000000000000
 H    0.530828128659    5.689080487467    0.000000000000
 C    2.694887468344    5.875824210306    0.000000000000
 H    2.682558409725    6.967224574615    0.000000000000
 C    3.919601309702    5.186580768273    0.000000000000
 H    4.861883290166    5.738161307989    0.000000000000
 C    3.945302415828    3.780755680738    0.000000000000
 H    4.897393004292    3.241580739779    0.000000000000
