27

 C   -2.740422030898   -5.904031195303    0.000000000000
 H   -2.728092030898   -6.995431195303    0.000000000000
 C   -1.531162030898   -5.187821195303    0.000000000000
 H   -0.576362030898   -5.717281195303    0.000000000000
 C   -3.965132030898   -5.214791195303    0.000000000000
 H   -4.907412030898   -5.766371195303    0.000000000000
 C   -1.543812030898   -3.782391195303    0.000000000000
 H   -0.599542030898   -3.227601195303    0.000000000000
 C   -3.990832030898   -3.808971195303    0.000000000000
 H   -4.942922030898   -3.269801195303    0.000000000000
 C   -2.775052030898   -3.119381195303    0.000000000000
 O   -2.748602030898   -1.702631195303    0.000000000000
 H   -3.660572030898   -1.374881195303    0.000000000000
LI   -1.160352030898   -0.718781195303    0.000000000000
 O    2.835164852336    1.756263215571    0.000000000000
 H    3.747136365960    1.428507201534    0.000000000000
 C    2.861615321502    3.173006323117    0.000000000000
 C    1.630382553749    3.836020977262    0.000000000000
 H    0.686109063531    3.281233890380    0.000000000000
 C    1.617732543935    5.241444047961    0.000000000000
 H    0.662930259992    5.770911862825    0.000000000000
 C    2.826989599677    5.957655585664    0.000000000000
 H    2.814660541058    7.049055949973    0.000000000000
 C    4.051703441035    5.268412143631    0.000000000000
 H    4.993985421499    5.819992683347    0.000000000000
 C    4.077404547161    3.862587056096    0.000000000000
 H    5.029495135625    3.323412115137    0.000000000000
