27

 C   -2.822375938374   -5.954797983825    0.000000000000
 H   -2.810045938374   -7.046197983825    0.000000000000
 C   -1.613115938374   -5.238587983825    0.000000000000
 H   -0.658315938374   -5.768047983825    0.000000000000
 C   -4.047085938374   -5.265557983825    0.000000000000
 H   -4.989365938374   -5.817137983825    0.000000000000
 C   -1.625765938374   -3.833157983825    0.000000000000
 H   -0.681495938374   -3.278367983825    0.000000000000
 C   -4.072785938374   -3.859737983825    0.000000000000
 H   -5.024875938374   -3.320567983825    0.000000000000
 C   -2.857005938374   -3.170147983825    0.000000000000
 O   -2.830555938374   -1.753397983825    0.000000000000
 H   -3.742525938374   -1.425647983825    0.000000000000
LI   -1.242305938374   -0.769547983825    0.000000000000
 O    2.923232939891    1.810817465809    0.000000000000
 H    3.835204453516    1.483061451773    0.000000000000
 C    2.949683409057    3.227560573356    0.000000000000
 C    1.718450641304    3.890575227501    0.000000000000
 H    0.774177151086    3.335788140618    0.000000000000
 C    1.705800631491    5.295998298200    0.000000000000
 H    0.750998347548    5.825466113064    0.000000000000
 C    2.915057687233    6.012209835902    0.000000000000
 H    2.902728628613    7.103610200211    0.000000000000
 C    4.139771528591    5.322966393870    0.000000000000
 H    5.082053509054    5.874546933586    0.000000000000
 C    4.165472634716    3.917141306334    0.000000000000
 H    5.117563223181    3.377966365375    0.000000000000
