27

 C   -2.986283753325   -6.056331560869    0.000000000000
 H   -2.973953753325   -7.147731560869    0.000000000000
 C   -1.777023753325   -5.340121560869    0.000000000000
 H   -0.822223753325   -5.869581560869    0.000000000000
 C   -4.210993753325   -5.367091560869    0.000000000000
 H   -5.153273753325   -5.918671560869    0.000000000000
 C   -1.789673753325   -3.934691560869    0.000000000000
 H   -0.845403753325   -3.379901560869    0.000000000000
 C   -4.236693753325   -3.961271560869    0.000000000000
 H   -5.188783753325   -3.422101560869    0.000000000000
 C   -3.020913753325   -3.271681560869    0.000000000000
 O   -2.994463753325   -1.854931560869    0.000000000000
 H   -3.906433753325   -1.527181560869    0.000000000000
LI   -1.406213753325   -0.871081560869    0.000000000000
 O    3.099369115002    1.919925966286    0.000000000000
 H    4.011340628627    1.592169952250    0.000000000000
 C    3.125819584168    3.336669073833    0.000000000000
 C    1.894586816415    3.999683727978    0.000000000000
 H    0.950313326197    3.444896641095    0.000000000000
 C    1.881936806602    5.405106798677    0.000000000000
 H    0.927134522659    5.934574613541    0.000000000000
 C    3.091193862343    6.121318336380    0.000000000000
 H    3.078864803724    7.212718700688    0.000000000000
 C    4.315907703702    5.432074894347    0.000000000000
 H    5.258189684165    5.983655434063    0.000000000000
 C    4.341608809827    4.026249806811    0.000000000000
 H    5.293699398291    3.487074865853    0.000000000000
