27

 C   -3.027260707063   -6.081714955130    0.000000000000
 H   -3.014930707063   -7.173114955130    0.000000000000
 C   -1.818000707063   -5.365504955130    0.000000000000
 H   -0.863200707063   -5.894964955130    0.000000000000
 C   -4.251970707063   -5.392474955130    0.000000000000
 H   -5.194250707063   -5.944054955130    0.000000000000
 C   -1.830650707063   -3.960074955130    0.000000000000
 H   -0.886380707063   -3.405284955130    0.000000000000
 C   -4.277670707063   -3.986654955130    0.000000000000
 H   -5.229760707063   -3.447484955130    0.000000000000
 C   -3.061890707063   -3.297064955130    0.000000000000
 O   -3.035440707063   -1.880314955130    0.000000000000
 H   -3.947410707063   -1.552564955130    0.000000000000
LI   -1.447190707063   -0.896464955130    0.000000000000
 O    3.143403158780    1.947203091406    0.000000000000
 H    4.055374672404    1.619447077369    0.000000000000
 C    3.169853627946    3.363946198952    0.000000000000
 C    1.938620860193    4.026960853097    0.000000000000
 H    0.994347369975    3.472173766215    0.000000000000
 C    1.925970850379    5.432383923796    0.000000000000
 H    0.971168566436    5.961851738660    0.000000000000
 C    3.135227906121    6.148595461499    0.000000000000
 H    3.122898847502    7.239995825808    0.000000000000
 C    4.359941747479    5.459352019466    0.000000000000
 H    5.302223727943    6.010932559182    0.000000000000
 C    4.385642853605    4.053526931931    0.000000000000
 H    5.337733442069    3.514351990972    0.000000000000
