27

 C   -3.068237660801   -6.107098349391    0.000000000000
 H   -3.055907660801   -7.198498349391    0.000000000000
 C   -1.858977660801   -5.390888349391    0.000000000000
 H   -0.904177660801   -5.920348349391    0.000000000000
 C   -4.292947660801   -5.417858349391    0.000000000000
 H   -5.235227660801   -5.969438349391    0.000000000000
 C   -1.871627660801   -3.985458349391    0.000000000000
 H   -0.927357660801   -3.430668349391    0.000000000000
 C   -4.318647660801   -4.012038349391    0.000000000000
 H   -5.270737660801   -3.472868349391    0.000000000000
 C   -3.102867660801   -3.322448349391    0.000000000000
 O   -3.076417660801   -1.905698349391    0.000000000000
 H   -3.988387660801   -1.577948349391    0.000000000000
LI   -1.488167660801   -0.921848349391    0.000000000000
 O    3.187437202557    1.974480216525    0.000000000000
 H    4.099408716182    1.646724202488    0.000000000000
 C    3.213887671723    3.391223324072    0.000000000000
 C    1.982654903970    4.054237978217    0.000000000000
 H    1.038381413753    3.499450891334    0.000000000000
 C    1.970004894157    5.459661048915    0.000000000000
 H    1.015202610214    5.989128863780    0.000000000000
 C    3.179261949899    6.175872586618    0.000000000000
 H    3.166932891280    7.267272950927    0.000000000000
 C    4.403975791257    5.486629144585    0.000000000000
 H    5.346257771721    6.038209684302    0.000000000000
 C    4.429676897383    4.080804057050    0.000000000000
 H    5.381767485847    3.541629116091    0.000000000000
