27

 C   -3.109214614539   -6.132481743652    0.000000000000
 H   -3.096884614539   -7.223881743652    0.000000000000
 C   -1.899954614539   -5.416271743652    0.000000000000
 H   -0.945154614539   -5.945731743652    0.000000000000
 C   -4.333924614539   -5.443241743652    0.000000000000
 H   -5.276204614539   -5.994821743652    0.000000000000
 C   -1.912604614539   -4.010841743652    0.000000000000
 H   -0.968334614539   -3.456051743652    0.000000000000
 C   -4.359624614539   -4.037421743652    0.000000000000
 H   -5.311714614539   -3.498251743652    0.000000000000
 C   -3.143844614539   -3.347831743652    0.000000000000
 O   -3.117394614539   -1.931081743652    0.000000000000
 H   -4.029364614539   -1.603331743652    0.000000000000
LI   -1.529144614539   -0.947231743652    0.000000000000
 O    3.231471246335    2.001757341644    0.000000000000
 H    4.143442759960    1.674001327608    0.000000000000
 C    3.257921715501    3.418500449191    0.000000000000
 C    2.026688947748    4.081515103336    0.000000000000
 H    1.082415457530    3.526728016453    0.000000000000
 C    2.014038937935    5.486938174035    0.000000000000
 H    1.059236653992    6.016405988899    0.000000000000
 C    3.223295993677    6.203149711737    0.000000000000
 H    3.210966935057    7.294550076046    0.000000000000
 C    4.448009835035    5.513906269705    0.000000000000
 H    5.390291815498    6.065486809421    0.000000000000
 C    4.473710941160    4.108081182169    0.000000000000
 H    5.425801529625    3.568906241210    0.000000000000
