27

 C   -3.150191568277   -6.157865137913    0.000000000000
 H   -3.137861568277   -7.249265137913    0.000000000000
 C   -1.940931568277   -5.441655137913    0.000000000000
 H   -0.986131568277   -5.971115137913    0.000000000000
 C   -4.374901568277   -5.468625137913    0.000000000000
 H   -5.317181568277   -6.020205137913    0.000000000000
 C   -1.953581568277   -4.036225137913    0.000000000000
 H   -1.009311568277   -3.481435137913    0.000000000000
 C   -4.400601568277   -4.062805137913    0.000000000000
 H   -5.352691568277   -3.523635137913    0.000000000000
 C   -3.184821568277   -3.373215137913    0.000000000000
 O   -3.158371568277   -1.956465137913    0.000000000000
 H   -4.070341568277   -1.628715137913    0.000000000000
LI   -1.570121568277   -0.972615137913    0.000000000000
 O    3.275505290113    2.029034466763    0.000000000000
 H    4.187476803737    1.701278452727    0.000000000000
 C    3.301955759279    3.445777574310    0.000000000000
 C    2.070722991526    4.108792228455    0.000000000000
 H    1.126449501308    3.554005141573    0.000000000000
 C    2.058072981712    5.514215299154    0.000000000000
 H    1.103270697769    6.043683114018    0.000000000000
 C    3.267330037454    6.230426836857    0.000000000000
 H    3.255000978835    7.321827201166    0.000000000000
 C    4.492043878813    5.541183394824    0.000000000000
 H    5.434325859276    6.092763934540    0.000000000000
 C    4.517744984938    4.135358307289    0.000000000000
 H    5.469835573402    3.596183366330    0.000000000000
