27

 C   -3.314099383229   -6.259398714957    0.000000000000
 H   -3.301769383229   -7.350798714957    0.000000000000
 C   -2.104839383229   -5.543188714957    0.000000000000
 H   -1.150039383229   -6.072648714957    0.000000000000
 C   -4.538809383229   -5.570158714957    0.000000000000
 H   -5.481089383229   -6.121738714957    0.000000000000
 C   -2.117489383229   -4.137758714957    0.000000000000
 H   -1.173219383229   -3.582968714957    0.000000000000
 C   -4.564509383229   -4.164338714957    0.000000000000
 H   -5.516599383229   -3.625168714957    0.000000000000
 C   -3.348729383229   -3.474748714957    0.000000000000
 O   -3.322279383229   -2.057998714957    0.000000000000
 H   -4.234249383229   -1.730248714957    0.000000000000
LI   -1.734029383229   -1.074148714957    0.000000000000
 O    3.451641465224    2.138142967241    0.000000000000
 H    4.363612978848    1.810386953204    0.000000000000
 C    3.478091934390    3.554886074787    0.000000000000
 C    2.246859166637    4.217900728932    0.000000000000
 H    1.302585676419    3.663113642050    0.000000000000
 C    2.234209156823    5.623323799631    0.000000000000
 H    1.279406872880    6.152791614495    0.000000000000
 C    3.443466212565    6.339535337334    0.000000000000
 H    3.431137153946    7.430935701643    0.000000000000
 C    4.668180053923    5.650291895301    0.000000000000
 H    5.610462034387    6.201872435017    0.000000000000
 C    4.693881160049    4.244466807766    0.000000000000
 H    5.645971748513    3.705291866807    0.000000000000
