27

 C   -3.396053290704   -6.310165503479    0.000000000000
 H   -3.383723290704   -7.401565503479    0.000000000000
 C   -2.186793290704   -5.593955503479    0.000000000000
 H   -1.231993290704   -6.123415503479    0.000000000000
 C   -4.620763290704   -5.620925503479    0.000000000000
 H   -5.563043290704   -6.172505503479    0.000000000000
 C   -2.199443290704   -4.188525503479    0.000000000000
 H   -1.255173290704   -3.633735503479    0.000000000000
 C   -4.646463290704   -4.215105503479    0.000000000000
 H   -5.598553290704   -3.675935503479    0.000000000000
 C   -3.430683290704   -3.525515503479    0.000000000000
 O   -3.404233290704   -2.108765503479    0.000000000000
 H   -4.316203290704   -1.781015503479    0.000000000000
LI   -1.815983290704   -1.124915503479    0.000000000000
 O    3.539709552779    2.192697217479    0.000000000000
 H    4.451681066404    1.864941203443    0.000000000000
 C    3.566160021945    3.609440325026    0.000000000000
 C    2.334927254192    4.272454979171    0.000000000000
 H    1.390653763974    3.717667892288    0.000000000000
 C    2.322277244379    5.677878049870    0.000000000000
 H    1.367474960436    6.207345864734    0.000000000000
 C    3.531534300121    6.394089587572    0.000000000000
 H    3.519205241501    7.485489951881    0.000000000000
 C    4.756248141479    5.704846145540    0.000000000000
 H    5.698530121942    6.256426685256    0.000000000000
 C    4.781949247605    4.299021058004    0.000000000000
 H    5.734039836069    3.759846117045    0.000000000000
