27

 C   -3.600938059394   -6.437082474783    0.000000000000
 H   -3.588608059394   -7.528482474784    0.000000000000
 C   -2.391678059394   -5.720872474783    0.000000000000
 H   -1.436878059394   -6.250332474783    0.000000000000
 C   -4.825648059394   -5.747842474783    0.000000000000
 H   -5.767928059394   -6.299422474783    0.000000000000
 C   -2.404328059394   -4.315442474783    0.000000000000
 H   -1.460058059394   -3.760652474783    0.000000000000
 C   -4.851348059394   -4.342022474784    0.000000000000
 H   -5.803438059394   -3.802852474783    0.000000000000
 C   -3.635568059394   -3.652432474784    0.000000000000
 O   -3.609118059394   -2.235682474784    0.000000000000
 H   -4.521088059394   -1.907932474784    0.000000000000
LI   -2.020868059394   -1.251832474784    0.000000000000
 O    3.759879771668    2.329082843076    0.000000000000
 H    4.671851285292    2.001326829039    0.000000000000
 C    3.786330240834    3.745825950622    0.000000000000
 C    2.555097473081    4.408840604767    0.000000000000
 H    1.610823982863    3.854053517885    0.000000000000
 C    2.542447463267    5.814263675466    0.000000000000
 H    1.587645179324    6.343731490330    0.000000000000
 C    3.751704519009    6.530475213169    0.000000000000
 H    3.739375460390    7.621875577478    0.000000000000
 C    4.976418360368    5.841231771136    0.000000000000
 H    5.918700340831    6.392812310852    0.000000000000
 C    5.002119466493    4.435406683601    0.000000000000
 H    5.954210054957    3.896231742642    0.000000000000
