27

 C   -3.887776735559   -6.614766234610    0.000000000000
 H   -3.875446735559   -7.706166234610    0.000000000000
 C   -2.678516735559   -5.898556234610    0.000000000000
 H   -1.723716735559   -6.428016234610    0.000000000000
 C   -5.112486735559   -5.925526234610    0.000000000000
 H   -6.054766735559   -6.477106234610    0.000000000000
 C   -2.691166735559   -4.493126234610    0.000000000000
 H   -1.746896735559   -3.938336234610    0.000000000000
 C   -5.138186735559   -4.519706234610    0.000000000000
 H   -6.090276735559   -3.980536234610    0.000000000000
 C   -3.922406735559   -3.830116234610    0.000000000000
 O   -3.895956735559   -2.413366234610    0.000000000000
 H   -4.807926735559   -2.085616234610    0.000000000000
LI   -2.307706735559   -1.429516234610    0.000000000000
 O    4.068118078112    2.520022718911    0.000000000000
 H    4.980089591736    2.192266704874    0.000000000000
 C    4.094568547278    3.936765826457    0.000000000000
 C    2.863335779525    4.599780480602    0.000000000000
 H    1.919062289307    4.044993393720    0.000000000000
 C    2.850685769711    6.005203551301    0.000000000000
 H    1.895883485768    6.534671366165    0.000000000000
 C    4.059942825453    6.721415089004    0.000000000000
 H    4.047613766834    7.812815453313    0.000000000000
 C    5.284656666812    6.032171646971    0.000000000000
 H    6.226938647275    6.583752186687    0.000000000000
 C    5.310357772937    4.626346559436    0.000000000000
 H    6.262448361401    4.087171618477    0.000000000000
