27

 C   -4.133638457986   -6.767066600176    0.000000000000
 H   -4.121308457986   -7.858466600176    0.000000000000
 C   -2.924378457986   -6.050856600176    0.000000000000
 H   -1.969578457986   -6.580316600176    0.000000000000
 C   -5.358348457986   -6.077826600176    0.000000000000
 H   -6.300628457986   -6.629406600176    0.000000000000
 C   -2.937028457986   -4.645426600176    0.000000000000
 H   -1.992758457986   -4.090636600176    0.000000000000
 C   -5.384048457986   -4.672006600176    0.000000000000
 H   -6.336138457986   -4.132836600176    0.000000000000
 C   -4.168268457986   -3.982416600176    0.000000000000
 O   -4.141818457986   -2.565666600176    0.000000000000
 H   -5.053788457986   -2.237916600176    0.000000000000
LI   -2.553568457986   -1.581816600176    0.000000000000
 O    4.332322340778    2.683685469626    0.000000000000
 H    5.244293854403    2.355929455590    0.000000000000
 C    4.358772809944    4.100428577173    0.000000000000
 C    3.127540042191    4.763443231318    0.000000000000
 H    2.183266551973    4.208656144436    0.000000000000
 C    3.114890032378    6.168866302017    0.000000000000
 H    2.160087748435    6.698334116881    0.000000000000
 C    4.324147088119    6.885077839720    0.000000000000
 H    4.311818029500    7.976478204029    0.000000000000
 C    5.548860929478    6.195834397687    0.000000000000
 H    6.491142909941    6.747414937403    0.000000000000
 C    5.574562035603    4.790009310151    0.000000000000
 H    6.526652624068    4.250834369193    0.000000000000
