27

 C   -4.215592365462   -6.817833388698    0.000000000000
 H   -4.203262365462   -7.909233388698    0.000000000000
 C   -3.006332365462   -6.101623388698    0.000000000000
 H   -2.051532365462   -6.631083388698    0.000000000000
 C   -5.440302365462   -6.128593388698    0.000000000000
 H   -6.382582365462   -6.680173388698    0.000000000000
 C   -3.018982365462   -4.696193388698    0.000000000000
 H   -2.074712365462   -4.141403388698    0.000000000000
 C   -5.466002365462   -4.722773388698    0.000000000000
 H   -6.418092365462   -4.183603388698    0.000000000000
 C   -4.250222365462   -4.033183388698    0.000000000000
 O   -4.223772365462   -2.616433388698    0.000000000000
 H   -5.135742365462   -2.288683388698    0.000000000000
LI   -2.635522365462   -1.632583388698    0.000000000000
 O    4.420390428333    2.738239719865    0.000000000000
 H    5.332361941958    2.410483705828    0.000000000000
 C    4.446840897500    4.154982827412    0.000000000000
 C    3.215608129747    4.817997481557    0.000000000000
 H    2.271334639529    4.263210394674    0.000000000000
 C    3.202958119933    6.223420552255    0.000000000000
 H    2.248155835990    6.752888367120    0.000000000000
 C    4.412215175675    6.939632089958    0.000000000000
 H    4.399886117056    8.031032454267    0.000000000000
 C    5.636929017033    6.250388647925    0.000000000000
 H    6.579210997497    6.801969187642    0.000000000000
 C    5.662630123159    4.844563560390    0.000000000000
 H    6.614720711623    4.305388619431    0.000000000000
