27

 C   -4.338523226676   -6.893983571481    0.000000000000
 H   -4.326193226676   -7.985383571481    0.000000000000
 C   -3.129263226676   -6.177773571481    0.000000000000
 H   -2.174463226676   -6.707233571481    0.000000000000
 C   -5.563233226676   -6.204743571481    0.000000000000
 H   -6.505513226676   -6.756323571481    0.000000000000
 C   -3.141913226676   -4.772343571481    0.000000000000
 H   -2.197643226676   -4.217553571481    0.000000000000
 C   -5.588933226676   -4.798923571481    0.000000000000
 H   -6.541023226676   -4.259753571481    0.000000000000
 C   -4.373153226676   -4.109333571481    0.000000000000
 O   -4.346703226676   -2.692583571481    0.000000000000
 H   -5.258673226676   -2.364833571481    0.000000000000
LI   -2.758453226676   -1.708733571481    0.000000000000
 O    4.552492559667    2.820071095223    0.000000000000
 H    5.464464073291    2.492315081186    0.000000000000
 C    4.578943028833    4.236814202769    0.000000000000
 C    3.347710261080    4.899828856915    0.000000000000
 H    2.403436770862    4.345041770032    0.000000000000
 C    3.335060251266    6.305251927613    0.000000000000
 H    2.380257967323    6.834719742478    0.000000000000
 C    4.544317307008    7.021463465316    0.000000000000
 H    4.531988248389    8.112863829625    0.000000000000
 C    5.769031148366    6.332220023283    0.000000000000
 H    6.711313128830    6.883800563000    0.000000000000
 C    5.794732254492    4.926394935748    0.000000000000
 H    6.746822842956    4.387219994789    0.000000000000
