27

 C   -4.379500180414   -6.919366965742    0.000000000000
 H   -4.367170180414   -8.010766965742    0.000000000000
 C   -3.170240180414   -6.203156965742    0.000000000000
 H   -2.215440180414   -6.732616965742    0.000000000000
 C   -5.604210180414   -6.230126965742    0.000000000000
 H   -6.546490180414   -6.781706965742    0.000000000000
 C   -3.182890180414   -4.797726965742    0.000000000000
 H   -2.238620180414   -4.242936965742    0.000000000000
 C   -5.629910180414   -4.824306965742    0.000000000000
 H   -6.582000180414   -4.285136965742    0.000000000000
 C   -4.414130180414   -4.134716965742    0.000000000000
 O   -4.387680180414   -2.717966965742    0.000000000000
 H   -5.299650180414   -2.390216965742    0.000000000000
LI   -2.799430180414   -1.734116965742    0.000000000000
 O    4.596526603444    2.847348220342    0.000000000000
 H    5.508498117069    2.519592206306    0.000000000000
 C    4.622977072610    4.264091327889    0.000000000000
 C    3.391744304857    4.927105982034    0.000000000000
 H    2.447470814640    4.372318895151    0.000000000000
 C    3.379094295044    6.332529052732    0.000000000000
 H    2.424292011101    6.861996867597    0.000000000000
 C    4.588351350786    7.048740590435    0.000000000000
 H    4.576022292167    8.140140954744    0.000000000000
 C    5.813065192144    6.359497148403    0.000000000000
 H    6.755347172608    6.911077688119    0.000000000000
 C    5.838766298270    4.953672060867    0.000000000000
 H    6.790856886734    4.414497119908    0.000000000000
