27

 C   -4.502431041627   -6.995517148525    0.000000000000
 H   -4.490101041627   -8.086917148525    0.000000000000
 C   -3.293171041627   -6.279307148525    0.000000000000
 H   -2.338371041627   -6.808767148525    0.000000000000
 C   -5.727141041627   -6.306277148525    0.000000000000
 H   -6.669421041627   -6.857857148525    0.000000000000
 C   -3.305821041627   -4.873877148525    0.000000000000
 H   -2.361551041627   -4.319087148525    0.000000000000
 C   -5.752841041627   -4.900457148525    0.000000000000
 H   -6.704931041627   -4.361287148525    0.000000000000
 C   -4.537061041627   -4.210867148525    0.000000000000
 O   -4.510611041627   -2.794117148525    0.000000000000
 H   -5.422581041627   -2.466367148525    0.000000000000
LI   -2.922361041627   -1.810267148525    0.000000000000
 O    4.728628734777    2.929179595700    0.000000000000
 H    5.640600248402    2.601423581664    0.000000000000
 C    4.755079203944    4.345922703247    0.000000000000
 C    3.523846436191    5.008937357392    0.000000000000
 H    2.579572945973    4.454150270509    0.000000000000
 C    3.511196426377    6.414360428090    0.000000000000
 H    2.556394142434    6.943828242955    0.000000000000
 C    4.720453482119    7.130571965793    0.000000000000
 H    4.708124423500    8.221972330102    0.000000000000
 C    5.945167323477    6.441328523760    0.000000000000
 H    6.887449303941    6.992909063477    0.000000000000
 C    5.970868429603    5.035503436225    0.000000000000
 H    6.922959018067    4.496328495266    0.000000000000
