27

 C   -4.666338856579   -7.097050725569    0.000000000000
 H   -4.654008856579   -8.188450725569    0.000000000000
 C   -3.457078856579   -6.380840725569    0.000000000000
 H   -2.502278856579   -6.910300725569    0.000000000000
 C   -5.891048856579   -6.407810725569    0.000000000000
 H   -6.833328856579   -6.959390725569    0.000000000000
 C   -3.469728856579   -4.975410725569    0.000000000000
 H   -2.525458856579   -4.420620725569    0.000000000000
 C   -5.916748856579   -5.001990725569    0.000000000000
 H   -6.868838856579   -4.462820725569    0.000000000000
 C   -4.700968856579   -4.312400725569    0.000000000000
 O   -4.674518856579   -2.895650725569    0.000000000000
 H   -5.586488856579   -2.567900725569    0.000000000000
LI   -3.086268856579   -1.911800725569    0.000000000000
 O    4.904764909888    3.038288096177    0.000000000000
 H    5.816736423513    2.710532082141    0.000000000000
 C    4.931215379054    4.455031203724    0.000000000000
 C    3.699982611301    5.118045857869    0.000000000000
 H    2.755709121084    4.563258770986    0.000000000000
 C    3.687332601488    6.523468928567    0.000000000000
 H    2.732530317545    7.052936743432    0.000000000000
 C    4.896589657230    7.239680466270    0.000000000000
 H    4.884260598611    8.331080830579    0.000000000000
 C    6.121303498588    6.550437024238    0.000000000000
 H    7.063585479052    7.102017563954    0.000000000000
 C    6.147004604714    5.144611936702    0.000000000000
 H    7.099095193178    4.605436995743    0.000000000000
