27

 C   -4.748292764055   -7.147817514091    0.000000000000
 H   -4.735962764055   -8.239217514091    0.000000000000
 C   -3.539032764055   -6.431607514091    0.000000000000
 H   -2.584232764055   -6.961067514091    0.000000000000
 C   -5.973002764055   -6.458577514091    0.000000000000
 H   -6.915282764055   -7.010157514091    0.000000000000
 C   -3.551682764055   -5.026177514091    0.000000000000
 H   -2.607412764055   -4.471387514091    0.000000000000
 C   -5.998702764055   -5.052757514091    0.000000000000
 H   -6.950792764055   -4.513587514091    0.000000000000
 C   -4.782922764055   -4.363167514091    0.000000000000
 O   -4.756472764055   -2.946417514091    0.000000000000
 H   -5.668442764055   -2.618667514091    0.000000000000
LI   -3.168222764055   -1.962567514091    0.000000000000
 O    4.992832997444    3.092842346416    0.000000000000
 H    5.904804511068    2.765086332379    0.000000000000
 C    5.019283466610    4.509585453962    0.000000000000
 C    3.788050698857    5.172600108108    0.000000000000
 H    2.843777208639    4.617813021225    0.000000000000
 C    3.775400689043    6.578023178806    0.000000000000
 H    2.820598405100    7.107490993670    0.000000000000
 C    4.984657744785    7.294234716509    0.000000000000
 H    4.972328686166    8.385635080818    0.000000000000
 C    6.209371586144    6.604991274476    0.000000000000
 H    7.151653566607    7.156571814192    0.000000000000
 C    6.235072692269    5.199166186941    0.000000000000
 H    7.187163280733    4.659991245982    0.000000000000
