27

 C   -4.871223625268   -7.223967696874    0.000000000000
 H   -4.858893625268   -8.315367696874    0.000000000000
 C   -3.661963625268   -6.507757696874    0.000000000000
 H   -2.707163625268   -7.037217696874    0.000000000000
 C   -6.095933625268   -6.534727696874    0.000000000000
 H   -7.038213625268   -7.086307696874    0.000000000000
 C   -3.674613625268   -5.102327696874    0.000000000000
 H   -2.730343625268   -4.547537696874    0.000000000000
 C   -6.121633625268   -5.128907696874    0.000000000000
 H   -7.073723625268   -4.589737696874    0.000000000000
 C   -4.905853625268   -4.439317696874    0.000000000000
 O   -4.879403625268   -3.022567696874    0.000000000000
 H   -5.791373625268   -2.694817696874    0.000000000000
LI   -3.291153625268   -2.038717696874    0.000000000000
 O    5.124935128777    3.174673721774    0.000000000000
 H    6.036906642402    2.846917707737    0.000000000000
 C    5.151385597943    4.591416829320    0.000000000000
 C    3.920152830190    5.254431483465    0.000000000000
 H    2.975879339972    4.699644396583    0.000000000000
 C    3.907502820377    6.659854554164    0.000000000000
 H    2.952700536434    7.189322369028    0.000000000000
 C    5.116759876118    7.376066091867    0.000000000000
 H    5.104430817499    8.467466456176    0.000000000000
 C    6.341473717477    6.686822649834    0.000000000000
 H    7.283755697940    7.238403189550    0.000000000000
 C    6.367174823602    5.280997562299    0.000000000000
 H    7.319265412067    4.741822621340    0.000000000000
