16

 N   -2.401555497441    0.301767993789   -0.174182858154
 C   -1.169429765174   -0.328522286219   -0.173227897846
 N   -0.899288829048   -1.649407761187   -0.176692086793
 C    0.428840339415   -1.867601653937   -0.161124658130
 H    0.742648622385   -2.914280386427   -0.157745087439
 N    1.441189782456   -0.959620696796   -0.147153387855
 C    1.128973038549    0.351200386453   -0.151799791755
 N    2.136599993351    1.275699023758   -0.193621628686
 H    3.068051530738    0.945168915006    0.028836305447
 H    1.903862487324    2.235669778797    0.031188616754
 C   -0.236527802325    0.727894240320   -0.160570879470
 N   -0.860057113516    1.966859940950   -0.150692670452
 C   -2.159982600673    1.658780552589   -0.159147523610
 H   -2.970036129460    2.385361353691   -0.155099385747
 H   -3.305345174611   -0.158489130045   -0.181785914087
NA    1.427943184384   -0.961776102381    0.952764737219
