16

 N   -2.400854804828    0.301882006214   -0.232364173853
 C   -1.168729072561   -0.328408273794   -0.231409213545
 N   -0.898588136435   -1.649293748762   -0.234873402492
 C    0.429541032028   -1.867487641512   -0.219305973829
 H    0.743349314998   -2.914166374002   -0.215926403138
 N    1.441890475069   -0.959506684371   -0.205334703554
 C    1.129673731162    0.351314398878   -0.209981107454
 N    2.137300685964    1.275813036183   -0.251802944385
 H    3.068752223351    0.945282927431   -0.029345010252
 H    1.904563179937    2.235783791222   -0.026992698945
 C   -0.235827109712    0.728008252745   -0.218752195169
 N   -0.859356420903    1.966973953375   -0.208873986151
 C   -2.159281908060    1.658894565014   -0.217328839309
 H   -2.969335436847    2.385475366116   -0.213280701446
 H   -3.304644481998   -0.158375117620   -0.239967229786
NA    1.423826932243   -0.962445873804    1.294553648820
