16

 N   -2.400154112216    0.301996018639   -0.290545489552
 C   -1.168028379949   -0.328294261369   -0.289590529244
 N   -0.897887443823   -1.649179736337   -0.293054718191
 C    0.430241724640   -1.867373629087   -0.277487289528
 H    0.744050007610   -2.914052361577   -0.274107718837
 N    1.442591167681   -0.959392671946   -0.263516019253
 C    1.130374423774    0.351428411303   -0.268162423153
 N    2.138001378576    1.275927048608   -0.309984260084
 H    3.069452915963    0.945396939856   -0.087526325951
 H    1.905263872549    2.235897803647   -0.085174014644
 C   -0.235126417100    0.728122265170   -0.276933510868
 N   -0.858655728291    1.967087965800   -0.267055301850
 C   -2.158581215448    1.659008577439   -0.275510155008
 H   -2.968634744235    2.385589378541   -0.271462017145
 H   -3.303943789386   -0.158261105195   -0.298148545485
NA    1.419710680102   -0.963115645228    1.636342560420
