16

 N   -2.385965086817    0.304304770246   -1.468717132459
 C   -1.153839354550   -0.325985509762   -1.467762172151
 N   -0.883698418424   -1.646870984730   -1.471226361098
 C    0.444430750039   -1.865064877480   -1.455658932435
 H    0.758239033009   -2.911743609970   -1.452279361744
 N    1.456780193080   -0.957083920339   -1.441687662160
 C    1.144563449173    0.353737162910   -1.446334066060
 N    2.152190403975    1.278235800215   -1.488155902991
 H    3.083641941362    0.947705691463   -1.265697968858
 H    1.919452897948    2.238206555254   -1.263345657551
 C   -0.220937391701    0.730431016777   -1.455105153775
 N   -0.844466702892    1.969396717407   -1.445226944757
 C   -2.144392190049    1.661317329046   -1.453681797915
 H   -2.954445718836    2.387898130148   -1.449633660052
 H   -3.289754763987   -0.155952353588   -1.476320188392
NA    1.336356574245   -0.976678516561    8.557568020331
