16

 N   -2.399628592757    0.302081527958   -0.334181476326
 C   -1.167502860490   -0.328208752050   -0.333226516018
 N   -0.897361924364   -1.649094227018   -0.336690704965
 C    0.430767244099   -1.867288119768   -0.321123276302
 H    0.744575527069   -2.913966852258   -0.317743705611
 N    1.443116687140   -0.959307162627   -0.307152006027
 C    1.130899943233    0.351513920622   -0.311798409927
 N    2.138526898035    1.276012557927   -0.353620246858
 H    3.069978435422    0.945482449175   -0.131162312725
 H    1.905789392008    2.235983312966   -0.128810001418
 C   -0.234600897641    0.728207774489   -0.320569497642
 N   -0.858130208832    1.967173475119   -0.310691288624
 C   -2.158055695989    1.659094086758   -0.319146141782
 H   -2.968109224776    2.385674887860   -0.315098003919
 H   -3.303418269927   -0.158175595876   -0.341784532259
NA    1.416623490996   -0.963617973796    1.892684244121
