16

 N   -2.399453419604    0.302110031064   -0.348726805251
 C   -1.167327687337   -0.328180248944   -0.347771844943
 N   -0.897186751211   -1.649065723912   -0.351236033890
 C    0.430942417252   -1.867259616662   -0.335668605227
 H    0.744750700222   -2.913938349152   -0.332289034536
 N    1.443291860293   -0.959278659521   -0.321697334952
 C    1.131075116386    0.351542423728   -0.326343738852
 N    2.138702071188    1.276041061033   -0.368165575783
 H    3.070153608575    0.945510952281   -0.145707641650
 H    1.905964565161    2.236011816072   -0.143355330343
 C   -0.234425724488    0.728236277595   -0.335114826567
 N   -0.857955035679    1.967201978225   -0.325236617549
 C   -2.157880522836    1.659122589864   -0.333691470707
 H   -2.967934051623    2.385703390966   -0.329643332844
 H   -3.303243096774   -0.158147092770   -0.356329861184
NA    1.415594427961   -0.963785416652    1.978131472021
