16

 N   -2.398402380685    0.302281049701   -0.435998778800
 C   -1.166276648418   -0.328009230307   -0.435043818492
 N   -0.896135712292   -1.648894705275   -0.438508007439
 C    0.431993456171   -1.867088598025   -0.422940578776
 H    0.745801739141   -2.913767330515   -0.419561008085
 N    1.444342899212   -0.959107640884   -0.408969308501
 C    1.132126155305    0.351713442365   -0.413615712401
 N    2.139753110107    1.276212079670   -0.455437549332
 H    3.071204647494    0.945681970918   -0.232979615199
 H    1.907015604080    2.236182834709   -0.230627303892
 C   -0.233374685569    0.728407296232   -0.422386800116
 N   -0.856903996760    1.967372996862   -0.412508591098
 C   -2.156829483917    1.659293608501   -0.420963444256
 H   -2.966883012704    2.385874409603   -0.416915306393
 H   -3.302192057855   -0.157976074133   -0.443601834733
NA    1.409420049749   -0.964790073788    2.490814839422
