16

 N   -2.397351341767    0.302452068339   -0.523270752348
 C   -1.165225609500   -0.327838211669   -0.522315792040
 N   -0.895084673374   -1.648723686637   -0.525779980987
 C    0.433044495089   -1.866917579387   -0.510212552324
 H    0.746852778059   -2.913596311877   -0.506832981633
 N    1.445393938130   -0.958936622246   -0.496241282049
 C    1.133177194223    0.351884461003   -0.500887685949
 N    2.140804149025    1.276383098308   -0.542709522880
 H    3.072255686412    0.945852989556   -0.320251588747
 H    1.908066642998    2.236353853347   -0.317899277440
 C   -0.232323646651    0.728578314870   -0.509658773664
 N   -0.855852957842    1.967544015500   -0.499780564646
 C   -2.155778444999    1.659464627139   -0.508235417804
 H   -2.965831973786    2.386045428241   -0.504187279941
 H   -3.301141018937   -0.157805055495   -0.530873808281
NA    1.403245671538   -0.965794730924    3.003498206822
