16

 N   -2.397176168614    0.302480571445   -0.537816081273
 C   -1.165050436347   -0.327809708563   -0.536861120965
 N   -0.894909500221   -1.648695183531   -0.540325309912
 C    0.433219668242   -1.866889076281   -0.524757881249
 H    0.747027951212   -2.913567808771   -0.521378310558
 N    1.445569111283   -0.958908119140   -0.510786610974
 C    1.133352367376    0.351912964109   -0.515433014874
 N    2.140979322178    1.276411601414   -0.557254851805
 H    3.072430859565    0.945881492662   -0.334796917672
 H    1.908241816151    2.236382356453   -0.332444606365
 C   -0.232148473498    0.728606817976   -0.524204102589
 N   -0.855677784689    1.967572518606   -0.514325893571
 C   -2.155603271846    1.659493130245   -0.522780746729
 H   -2.965656800633    2.386073931347   -0.518732608866
 H   -3.300965845784   -0.157776552389   -0.545419137206
NA    1.402216608502   -0.965962173780    3.088945434723
