16

 N   -2.396475476002    0.302594583870   -0.595997396972
 C   -1.164349743735   -0.327695696138   -0.595042436664
 N   -0.894208807609   -1.648581171106   -0.598506625611
 C    0.433920360854   -1.866775063856   -0.582939196948
 H    0.747728643824   -2.913453796346   -0.579559626257
 N    1.446269803895   -0.958794106715   -0.568967926673
 C    1.134053059988    0.352026976534   -0.573614330573
 N    2.141680014790    1.276525613839   -0.615436167504
 H    3.073131552177    0.945995505087   -0.392978233371
 H    1.908942508763    2.236496368878   -0.390625922064
 C   -0.231447780886    0.728720830401   -0.582385418288
 N   -0.854977092077    1.967686531031   -0.572507209270
 C   -2.154902579234    1.659607142670   -0.580962062428
 H   -2.964956108021    2.386187943772   -0.576913924565
 H   -3.300265153172   -0.157662539964   -0.603600452905
NA    1.398100356361   -0.966631945203    3.430734346323
