16

 N   -2.396300302849    0.302623086976   -0.610542725897
 C   -1.164174570582   -0.327667193032   -0.609587765589
 N   -0.894033634456   -1.648552668000   -0.613051954536
 C    0.434095534007   -1.866746560750   -0.597484525873
 H    0.747903816977   -2.913425293240   -0.594104955182
 N    1.446444977048   -0.958765603609   -0.583513255598
 C    1.134228233141    0.352055479640   -0.588159659498
 N    2.141855187943    1.276554116945   -0.629981496429
 H    3.073306725330    0.946024008193   -0.407523562296
 H    1.909117681916    2.236524871984   -0.405171250989
 C   -0.231272607733    0.728749333507   -0.596930747213
 N   -0.854801918924    1.967715034137   -0.587052538195
 C   -2.154727406081    1.659635645776   -0.595507391353
 H   -2.964780934868    2.386216446878   -0.591459253490
 H   -3.300089980019   -0.157634036858   -0.618145781830
NA    1.397071293326   -0.966799388059    3.516181574223
