16

 N   -2.395599610236    0.302737099402   -0.668724041596
 C   -1.163473877969   -0.327553180606   -0.667769081288
 N   -0.893332941843   -1.648438655574   -0.671233270235
 C    0.434796226620   -1.866632548324   -0.655665841572
 H    0.748604509590   -2.913311280814   -0.652286270881
 N    1.447145669661   -0.958651591183   -0.641694571297
 C    1.134928925754    0.352169492066   -0.646340975197
 N    2.142555880556    1.276668129371   -0.688162812128
 H    3.074007417943    0.946138020619   -0.465704877995
 H    1.909818374529    2.236638884410   -0.463352566688
 C   -0.230571915120    0.728863345933   -0.655112062912
 N   -0.854101226311    1.967829046563   -0.645233853894
 C   -2.154026713468    1.659749658202   -0.653688707052
 H   -2.964080242255    2.386330459304   -0.649640569189
 H   -3.299389287406   -0.157520024432   -0.676327097529
NA    1.392955041185   -0.967469159483    3.857970485824
