16

 N   -2.395424437083    0.302765602508   -0.683269370521
 C   -1.163298704816   -0.327524677500   -0.682314410213
 N   -0.893157768690   -1.648410152468   -0.685778599160
 C    0.434971399773   -1.866604045218   -0.670211170497
 H    0.748779682743   -2.913282777708   -0.666831599806
 N    1.447320842814   -0.958623088077   -0.656239900222
 C    1.135104098907    0.352197995172   -0.660886304122
 N    2.142731053709    1.276696632477   -0.702708141053
 H    3.074182591096    0.946166523725   -0.480250206920
 H    1.909993547682    2.236667387516   -0.477897895613
 C   -0.230396741967    0.728891849039   -0.669657391837
 N   -0.853926053158    1.967857549669   -0.659779182819
 C   -2.153851540315    1.659778161308   -0.668234035977
 H   -2.963905069102    2.386358962410   -0.664185898114
 H   -3.299214114253   -0.157491521326   -0.690872426454
NA    1.391925978150   -0.967636602339    3.943417713724
