16

 N   -2.394373398165    0.302936621145   -0.770541344070
 C   -1.162247665898   -0.327353658863   -0.769586383762
 N   -0.892106729772   -1.648239133831   -0.773050572709
 C    0.436022438691   -1.866433026581   -0.757483144046
 H    0.749830721661   -2.913111759071   -0.754103573355
 N    1.448371881732   -0.958452069440   -0.743511873771
 C    1.136155137825    0.352369013809   -0.748158277671
 N    2.143782092627    1.276867651114   -0.789980114602
 H    3.075233630014    0.946337542362   -0.567522180469
 H    1.911044586600    2.236838406153   -0.565169869162
 C   -0.229345703049    0.729062867676   -0.756929365386
 N   -0.852875014240    1.968028568306   -0.747051156368
 C   -2.152800501397    1.659949179945   -0.755506009526
 H   -2.962854030184    2.386529981047   -0.751457871663
 H   -3.298163075335   -0.157320502689   -0.778144400003
NA    1.385751599938   -0.968641259475    4.456101081125
