16

 N   -2.393322359246    0.303107639783   -0.857813317618
 C   -1.161196626979   -0.327182640225   -0.856858357310
 N   -0.891055690853   -1.648068115193   -0.860322546257
 C    0.437073477610   -1.866262007943   -0.844755117594
 H    0.750881760580   -2.912940740433   -0.841375546903
 N    1.449422920651   -0.958281050802   -0.830783847319
 C    1.137206176744    0.352540032447   -0.835430251219
 N    2.144833131546    1.277038669752   -0.877252088150
 H    3.076284668933    0.946508561000   -0.654794154017
 H    1.912095625519    2.237009424791   -0.652441842710
 C   -0.228294664130    0.729233886314   -0.844201338934
 N   -0.851823975321    1.968199586944   -0.834323129916
 C   -2.151749462478    1.660120198583   -0.842777983074
 H   -2.961802991265    2.386700999685   -0.838729845211
 H   -3.297112036416   -0.157149484051   -0.865416373551
NA    1.379577221726   -0.969645916611    4.968784448525
