16

 N   -2.393147186093    0.303136142889   -0.872358646543
 C   -1.161021453826   -0.327154137119   -0.871403686235
 N   -0.890880517700   -1.648039612087   -0.874867875182
 C    0.437248650763   -1.866233504837   -0.859300446519
 H    0.751056933733   -2.912912237327   -0.855920875828
 N    1.449598093804   -0.958252547696   -0.845329176244
 C    1.137381349897    0.352568535553   -0.849975580144
 N    2.145008304699    1.277067172858   -0.891797417075
 H    3.076459842086    0.946537064106   -0.669339482942
 H    1.912270798672    2.237037927897   -0.666987171635
 C   -0.228119490977    0.729262389420   -0.858746667859
 N   -0.851648802168    1.968228090050   -0.848868458841
 C   -2.151574289325    1.660148701689   -0.857323311999
 H   -2.961627818112    2.386729502791   -0.853275174136
 H   -3.296936863263   -0.157120980945   -0.879961702476
NA    1.378548158691   -0.969813359467    5.054231676426
