16

 N   -2.392972012940    0.303164645995   -0.886903975468
 C   -1.160846280673   -0.327125634013   -0.885949015160
 N   -0.890705344547   -1.648011108981   -0.889413204107
 C    0.437423823916   -1.866205001731   -0.873845775444
 H    0.751232106886   -2.912883734221   -0.870466204753
 N    1.449773266957   -0.958224044590   -0.859874505169
 C    1.137556523050    0.352597038659   -0.864520909069
 N    2.145183477852    1.277095675964   -0.906342746000
 H    3.076635015239    0.946565567212   -0.683884811867
 H    1.912445971825    2.237066431003   -0.681532500560
 C   -0.227944317824    0.729290892526   -0.873291996784
 N   -0.851473629015    1.968256593156   -0.863413787766
 C   -2.151399116172    1.660177204795   -0.871868640924
 H   -2.961452644959    2.386758005897   -0.867820503061
 H   -3.296761690110   -0.157092477839   -0.894507031401
NA    1.377519095656   -0.969980802323    5.139678904326
