16

 N   -2.392621666634    0.303221652208   -0.915994633317
 C   -1.160495934367   -0.327068627800   -0.915039673009
 N   -0.890354998241   -1.647954102768   -0.918503861956
 C    0.437774170222   -1.866147995518   -0.902936433293
 H    0.751582453192   -2.912826728008   -0.899556862602
 N    1.450123613263   -0.958167038377   -0.888965163018
 C    1.137906869356    0.352654044872   -0.893611566918
 N    2.145533824158    1.277152682177   -0.935433403849
 H    3.076985361545    0.946622573425   -0.712975469716
 H    1.912796318131    2.237123437216   -0.710623158409
 C   -0.227593971518    0.729347898739   -0.902382654633
 N   -0.851123282709    1.968313599369   -0.892504445615
 C   -2.151048769866    1.660234211008   -0.900959298773
 H   -2.961102298653    2.386815012110   -0.896911160910
 H   -3.296411343804   -0.157035471626   -0.923597689250
NA    1.375460969585   -0.970315688035    5.310573360126
