16

 N   -2.391745800869    0.303364167739   -0.988721277941
 C   -1.159620068602   -0.326926112269   -0.987766317633
 N   -0.889479132476   -1.647811587237   -0.991230506580
 C    0.438650035987   -1.866005479987   -0.975663077917
 H    0.752458318957   -2.912684212477   -0.972283507226
 N    1.450999479028   -0.958024522846   -0.961691807642
 C    1.138782735121    0.352796560403   -0.966338211542
 N    2.146409689923    1.277295197708   -1.008160048473
 H    3.077861227310    0.946765088956   -0.785702114340
 H    1.913672183896    2.237265952747   -0.783349803033
 C   -0.226718105753    0.729490414270   -0.975109299257
 N   -0.850247416944    1.968456114900   -0.965231090239
 C   -2.150172904101    1.660376726539   -0.973685943397
 H   -2.960226432888    2.386957527641   -0.969637805534
 H   -3.295535478039   -0.156892956095   -0.996324333874
NA    1.370315654409   -0.971152902314    5.737809499627
