16

 N   -2.391395454563    0.303421173952   -1.017811935791
 C   -1.159269722296   -0.326869106056   -1.016856975483
 N   -0.889128786170   -1.647754581024   -1.020321164430
 C    0.439000382293   -1.865948473774   -1.004753735767
 H    0.752808665263   -2.912627206264   -1.001374165076
 N    1.451349825334   -0.957967516633   -0.990782465492
 C    1.139133081427    0.352853566616   -0.995428869392
 N    2.146760036229    1.277352203921   -1.037250706323
 H    3.078211573616    0.946822095169   -0.814792772190
 H    1.914022530202    2.237322958960   -0.812440460883
 C   -0.226367759447    0.729547420483   -1.004199957107
 N   -0.849897070638    1.968513121113   -0.994321748089
 C   -2.149822557795    1.660433732752   -1.002776601247
 H   -2.959876086582    2.387014533854   -0.998728463384
 H   -3.295185131733   -0.156835949882   -1.025414991724
NA    1.368257528338   -0.971487788026    5.908703955427
