16

 N   -2.391220281409    0.303449677058   -1.032357264716
 C   -1.159094549142   -0.326840602950   -1.031402304408
 N   -0.888953613016   -1.647726077918   -1.034866493355
 C    0.439175555447   -1.865919970668   -1.019299064692
 H    0.752983838417   -2.912598703158   -1.015919494001
 N    1.451524998488   -0.957939013527   -1.005327794417
 C    1.139308254581    0.352882069722   -1.009974198317
 N    2.146935209383    1.277380707027   -1.051796035248
 H    3.078386746770    0.946850598275   -0.829338101115
 H    1.914197703356    2.237351462066   -0.826985789808
 C   -0.226192586293    0.729575923589   -1.018745286032
 N   -0.849721897484    1.968541624219   -1.008867077014
 C   -2.149647384641    1.660462235858   -1.017321930172
 H   -2.959700913428    2.387043036960   -1.013273792309
 H   -3.295009958579   -0.156807446776   -1.039960320649
NA    1.367228465303   -0.971655230882    5.994151183327
