16

 N   -2.390869935103    0.303506683270   -1.061447922565
 C   -1.158744202836   -0.326783596738   -1.060492962257
 N   -0.888603266710   -1.647669071706   -1.063957151204
 C    0.439525901753   -1.865862964456   -1.048389722541
 H    0.753334184723   -2.912541696946   -1.045010151850
 N    1.451875344794   -0.957882007315   -1.034418452266
 C    1.139658600887    0.352939075934   -1.039064856166
 N    2.147285555689    1.277437713239   -1.080886693097
 H    3.078737093076    0.946907604487   -0.858428758964
 H    1.914548049662    2.237408468278   -0.856076447657
 C   -0.225842239987    0.729632929801   -1.047835943881
 N   -0.849371551178    1.968598630431   -1.037957734863
 C   -2.149297038335    1.660519242070   -1.046412588021
 H   -2.959350567122    2.387100043172   -1.042364450158
 H   -3.294659612273   -0.156750440564   -1.069050978498
NA    1.365170339232   -0.971990116594    6.165045639127
