16

 N   -2.390519588797    0.303563689483   -1.090538580415
 C   -1.158393856530   -0.326726590525   -1.089583620107
 N   -0.888252920404   -1.647612065493   -1.093047809054
 C    0.439876248059   -1.865805958243   -1.077480380391
 H    0.753684531029   -2.912484690733   -1.074100809700
 N    1.452225691100   -0.957825001102   -1.063509110116
 C    1.140008947193    0.352996082147   -1.068155514016
 N    2.147635901995    1.277494719452   -1.109977350947
 H    3.079087439382    0.946964610700   -0.887519416814
 H    1.914898395968    2.237465474491   -0.885167105507
 C   -0.225491893681    0.729689936014   -1.076926601731
 N   -0.849021204872    1.968655636644   -1.067048392713
 C   -2.148946692029    1.660576248283   -1.075503245871
 H   -2.959000220816    2.387157049385   -1.071455108008
 H   -3.294309265967   -0.156693434351   -1.098141636348
NA    1.363112213162   -0.972325002306    6.335940094928
