16

 N   -2.390344415644    0.303592192589   -1.105083909339
 C   -1.158218683377   -0.326698087419   -1.104128949031
 N   -0.888077747251   -1.647583562387   -1.107593137978
 C    0.440051421212   -1.865777455137   -1.092025709315
 H    0.753859704182   -2.912456187627   -1.088646138624
 N    1.452400864253   -0.957796497996   -1.078054439040
 C    1.140184120346    0.353024585253   -1.082700842940
 N    2.147811075148    1.277523222558   -1.124522679871
 H    3.079262612535    0.946993113806   -0.902064745738
 H    1.915073569121    2.237493977597   -0.899712434431
 C   -0.225316720528    0.729718439120   -1.091471930655
 N   -0.848846031719    1.968684139750   -1.081593721637
 C   -2.148771518876    1.660604751389   -1.090048574795
 H   -2.958825047663    2.387185552491   -1.086000436932
 H   -3.294134092814   -0.156664931245   -1.112686965272
NA    1.362083150127   -0.972492445162    6.421387322828
