16

 N   -2.389994069338    0.303649198802   -1.134174567189
 C   -1.157868337071   -0.326641081206   -1.133219606881
 N   -0.887727400945   -1.647526556174   -1.136683795828
 C    0.440401767518   -1.865720448924   -1.121116367165
 H    0.754210050488   -2.912399181414   -1.117736796474
 N    1.452751210559   -0.957739491783   -1.107145096890
 C    1.140534466652    0.353081591466   -1.111791500790
 N    2.148161421454    1.277580228771   -1.153613337721
 H    3.079612958841    0.947050120019   -0.931155403588
 H    1.915423915427    2.237550983810   -0.928803092281
 C   -0.224966374222    0.729775445333   -1.120562588505
 N   -0.848495685413    1.968741145963   -1.110684379487
 C   -2.148421172570    1.660661757602   -1.119139232645
 H   -2.958474701357    2.387242558704   -1.115091094782
 H   -3.293783746508   -0.156607925032   -1.141777623122
NA    1.360025024056   -0.972827330874    6.592281778628
