16

 N   -2.388943030420    0.303820217439   -1.221446540738
 C   -1.156817298153   -0.326470062569   -1.220491580430
 N   -0.886676362027   -1.647355537537   -1.223955769377
 C    0.441452806436   -1.865549430287   -1.208388340714
 H    0.755261089406   -2.912228162777   -1.205008770023
 N    1.453802249477   -0.957568473146   -1.194417070439
 C    1.141585505570    0.353252610103   -1.199063474339
 N    2.149212460372    1.277751247408   -1.240885311270
 H    3.080663997759    0.947221138656   -1.018427377137
 H    1.916474954345    2.237722002447   -1.016075065830
 C   -0.223915335304    0.729946463970   -1.207834562054
 N   -0.847444646495    1.968912164600   -1.197956353036
 C   -2.147370133652    1.660832776239   -1.206411206194
 H   -2.957423662439    2.387413577341   -1.202363068331
 H   -3.292732707590   -0.156436906395   -1.229049596671
NA    1.353850645844   -0.973831988010    7.104965146029
