16

 N   -2.388767857266    0.303848720545   -1.235991869662
 C   -1.156642124999   -0.326441559463   -1.235036909354
 N   -0.886501188873   -1.647327034431   -1.238501098301
 C    0.441627979590   -1.865520927181   -1.222933669638
 H    0.755436262560   -2.912199659671   -1.219554098947
 N    1.453977422631   -0.957539970040   -1.208962399363
 C    1.141760678724    0.353281113209   -1.213608803263
 N    2.149387633526    1.277779750514   -1.255430640194
 H    3.080839170913    0.947249641762   -1.032972706061
 H    1.916650127499    2.237750505553   -1.030620394754
 C   -0.223740162150    0.729974967076   -1.222379890978
 N   -0.847269473341    1.968940667706   -1.212501681960
 C   -2.147194960498    1.660861279345   -1.220956535118
 H   -2.957248489285    2.387442080447   -1.216908397255
 H   -3.292557534436   -0.156408403289   -1.243594925595
NA    1.352821582809   -0.973999430866    7.190412373929
