16

 N   -2.387891991501    0.303991236077   -1.308718514286
 C   -1.155766259234   -0.326299043931   -1.307763553978
 N   -0.885625323108   -1.647184518899   -1.311227742925
 C    0.442503845355   -1.865378411649   -1.295660314262
 H    0.756312128325   -2.912057144139   -1.292280743571
 N    1.454853288396   -0.957397454508   -1.281689043987
 C    1.142636544489    0.353423628741   -1.286335447887
 N    2.150263499291    1.277922266046   -1.328157284818
 H    3.081715036678    0.947392157294   -1.105699350685
 H    1.917525993264    2.237893021085   -1.103347039378
 C   -0.222864296385    0.730117482608   -1.295106535602
 N   -0.846393607576    1.969083183238   -1.285228326584
 C   -2.146319094733    1.661003794877   -1.293683179742
 H   -2.956372623520    2.387584595979   -1.289635041879
 H   -3.291681668671   -0.156265887757   -1.316321570219
NA    1.347676267633   -0.974836645146    7.617648513430
