16

 N   -2.387366472042    0.304076745396   -1.352354501061
 C   -1.155240739775   -0.326213534612   -1.351399540753
 N   -0.885099803649   -1.647099009580   -1.354863729700
 C    0.443029364814   -1.865292902330   -1.339296301037
 H    0.756837647784   -2.911971634820   -1.335916730346
 N    1.455378807855   -0.957311945189   -1.325325030762
 C    1.143162063948    0.353509138060   -1.329971434662
 N    2.150789018750    1.278007775365   -1.371793271593
 H    3.082240556137    0.947477666613   -1.149335337460
 H    1.918051512723    2.237978530404   -1.146983026153
 C   -0.222338776926    0.730202991927   -1.338742522377
 N   -0.845868088117    1.969168692557   -1.328864313359
 C   -2.145793575274    1.661089304196   -1.337319166517
 H   -2.955847104061    2.387670105298   -1.333271028654
 H   -3.291156149212   -0.156180378438   -1.359957556994
NA    1.344589078527   -0.975338973713    7.873990197130
