16

 N   -2.387016125736    0.304133751608   -1.381445158910
 C   -1.154890393469   -0.326156528400   -1.380490198602
 N   -0.884749457343   -1.647042003368   -1.383954387549
 C    0.443379711120   -1.865235896118   -1.368386958886
 H    0.757187994090   -2.911914628608   -1.365007388195
 N    1.455729154161   -0.957254938977   -1.354415688611
 C    1.143512410254    0.353566144272   -1.359062092511
 N    2.151139365056    1.278064781577   -1.400883929442
 H    3.082590902443    0.947534672825   -1.178425995309
 H    1.918401859029    2.238035536616   -1.176073684002
 C   -0.221988430620    0.730259998139   -1.367833180226
 N   -0.845517741811    1.969225698769   -1.357954971208
 C   -2.145443228968    1.661146310408   -1.366409824366
 H   -2.955496757755    2.387727111510   -1.362361686503
 H   -3.290805802906   -0.156123372226   -1.389048214843
NA    1.342530952456   -0.975673859425    8.044884652930
