16

 N   -2.386665779430    0.304190757821   -1.410535816760
 C   -1.154540047163   -0.326099522187   -1.409580856452
 N   -0.884399111037   -1.646984997155   -1.413045045399
 C    0.443730057426   -1.865178889905   -1.397477616736
 H    0.757538340396   -2.911857622395   -1.394098046045
 N    1.456079500467   -0.957197932764   -1.383506346461
 C    1.143862756560    0.353623150485   -1.388152750361
 N    2.151489711362    1.278121787790   -1.429974587292
 H    3.082941248749    0.947591679038   -1.207516653159
 H    1.918752205335    2.238092542829   -1.205164341852
 C   -0.221638084314    0.730317004352   -1.396923838076
 N   -0.845167395505    1.969282704982   -1.387045629058
 C   -2.145092882662    1.661203316621   -1.395500482216
 H   -2.955146411449    2.387784117723   -1.391452344353
 H   -3.290455456600   -0.156066366013   -1.418138872693
NA    1.340472826386   -0.976008745137    8.215779108731
