16

 N   -2.386315433123    0.304247764033   -1.439626474609
 C   -1.154189700856   -0.326042515975   -1.438671514301
 N   -0.884048764730   -1.646927990943   -1.442135703248
 C    0.444080403733   -1.865121883693   -1.426568274585
 H    0.757888686703   -2.911800616183   -1.423188703894
 N    1.456429846774   -0.957140926552   -1.412597004310
 C    1.144213102867    0.353680156697   -1.417243408210
 N    2.151840057669    1.278178794002   -1.459065245141
 H    3.083291595056    0.947648685250   -1.236607311008
 H    1.919102551642    2.238149549041   -1.234254999701
 C   -0.221287738007    0.730374010564   -1.426014495925
 N   -0.844817049198    1.969339711194   -1.416136286907
 C   -2.144742536355    1.661260322833   -1.424591140065
 H   -2.954796065142    2.387841123935   -1.420543002202
 H   -3.290105110293   -0.156009359801   -1.447229530542
NA    1.338414700315   -0.976343630849    8.386673564531
