16

 N   -2.386140259970    0.304276267139   -1.454171803534
 C   -1.154014527703   -0.326014012869   -1.453216843226
 N   -0.883873591577   -1.646899487837   -1.456681032173
 C    0.444255576886   -1.865093380587   -1.441113603510
 H    0.758063859856   -2.911772113077   -1.437734032819
 N    1.456605019927   -0.957112423446   -1.427142333235
 C    1.144388276020    0.353708659803   -1.431788737135
 N    2.152015230822    1.278207297108   -1.473610574066
 H    3.083466768209    0.947677188356   -1.251152639933
 H    1.919277724795    2.238178052147   -1.248800328626
 C   -0.221112564854    0.730402513670   -1.440559824850
 N   -0.844641876045    1.969368214300   -1.430681615832
 C   -2.144567363202    1.661288825939   -1.439136468990
 H   -2.954620891989    2.387869627041   -1.435088331127
 H   -3.289929937140   -0.155980856695   -1.461774859467
NA    1.337385637280   -0.976511073705    8.472120792431
