16

 N   -1.831599085203    1.039190326977   -0.599985839018
 C   -0.599473352936    0.408900046969   -0.599030878710
 N   -0.329332416810   -0.911985427999   -0.602495067657
 C    0.998796751653   -1.130179320749   -0.586927638994
 H    1.312605034623   -2.176858053239   -0.583548068303
 N    2.011146194694   -0.222198363608   -0.572956368719
 C    1.698929450787    1.088622719641   -0.577602772619
 N    2.706556405589    2.013121356946   -0.619424609550
 H    3.638007942976    1.682591248194   -0.396966675417
 H    2.473818899562    2.973092111985   -0.394614364110
 C    0.333428609913    1.465316573508   -0.586373860334
 N   -0.290100701278    2.704282274138   -0.576495651316
 C   -1.590026188435    2.396202885777   -0.584950504474
 H   -2.400079717222    3.122783686879   -0.580902366611
 H   -2.735388762373    0.578933203143   -0.607588894951
CS   -0.332169151250   -0.915712710386    0.597495790768
