16

 N   -1.831130087906    1.039806558563   -0.798380324323
 C   -0.599004355639    0.409516278555   -0.797425364015
 N   -0.328863419513   -0.911369196413   -0.800889552962
 C    0.999265748950   -1.129563089163   -0.785322124299
 H    1.313074031920   -2.176241821653   -0.781942553608
 N    2.011615191991   -0.221582132022   -0.771350854024
 C    1.699398448084    1.089238951227   -0.775997257924
 N    2.707025402886    2.013737588532   -0.817819094855
 H    3.638476940273    1.683207479780   -0.595361160722
 H    2.474287896859    2.973708343571   -0.593008849415
 C    0.333897607210    1.465932805094   -0.784768345639
 N   -0.289631703981    2.704898505724   -0.774890136621
 C   -1.589557191138    2.396819117363   -0.783344989779
 H   -2.399610719925    3.123399918465   -0.779296851916
 H   -2.734919765076    0.579549434729   -0.805983380256
CS   -0.332645732100   -0.916338906261    0.799098258272
