16

 N   -1.821281144668    1.052747421883   -4.964664515725
 C   -0.589155412401    0.422457141875   -4.963709555417
 N   -0.319014476275   -0.898428333093   -4.967173744364
 C    1.009114692188   -1.116622225843   -4.951606315701
 H    1.322922975158   -2.163300958333   -4.948226745010
 N    2.021464135229   -0.208641268702   -4.937635045426
 C    1.709247391322    1.102179814547   -4.942281449326
 N    2.716874346124    2.026678451852   -4.984103286257
 H    3.648325883511    1.696148343100   -4.761645352124
 H    2.484136840097    2.986649206891   -4.759293040817
 C    0.343746550448    1.478873668414   -4.951052537041
 N   -0.279782760743    2.717839369044   -4.941174328023
 C   -1.579708247900    2.409759980683   -4.949629181181
 H   -2.389761776687    3.136340781785   -4.945581043318
 H   -2.725070821838    0.592490298049   -4.972267571658
CS   -0.342653929939   -0.929489019647    5.032750075845
