16

 N   -1.830661090609    1.040422790150   -0.996774809628
 C   -0.598535358342    0.410132510142   -0.995819849320
 N   -0.328394422216   -0.910752964826   -0.999284038267
 C    0.999734746247   -1.128946857576   -0.983716609604
 H    1.313543029217   -2.175625590066   -0.980337038913
 N    2.012084189288   -0.220965900435   -0.969745339329
 C    1.699867445381    1.089855182814   -0.974391743229
 N    2.707494400183    2.014353820119   -1.016213580160
 H    3.638945937570    1.683823711367   -0.793755646027
 H    2.474756894156    2.974324575158   -0.791403334720
 C    0.334366604507    1.466549036681   -0.983162830944
 N   -0.289162706684    2.705514737311   -0.973284621926
 C   -1.589088193841    2.397435348950   -0.981739475084
 H   -2.399141722628    3.124016150052   -0.977691337221
 H   -2.734450767779    0.580165666316   -1.004377865561
CS   -0.333122312949   -0.916965102137    1.000700725775
