16

 N   -1.830074843988    1.041193079633   -1.244767916259
 C   -0.597949111721    0.410902799625   -1.243812955951
 N   -0.327808175595   -0.909982675343   -1.247277144898
 C    1.000320992868   -1.128176568093   -1.231709716235
 H    1.314129275838   -2.174855300583   -1.228330145544
 N    2.012670435909   -0.220195610952   -1.217738445960
 C    1.700453692002    1.090625472297   -1.222384849860
 N    2.708080646804    2.015124109602   -1.264206686791
 H    3.639532184191    1.684594000850   -1.041748752658
 H    2.475343140777    2.975094864641   -1.039396441351
 C    0.334952851128    1.467319326164   -1.231155937575
 N   -0.288576460063    2.706285026794   -1.221277728557
 C   -1.588501947220    2.398205638433   -1.229732581715
 H   -2.398555476007    3.124786439535   -1.225684443852
 H   -2.733864521158    0.580935955799   -1.252370972192
CS   -0.333718039011   -0.917747846981    1.252703810154
