16

 N   -1.829605846691    1.041809311220   -1.443162401564
 C   -0.597480114424    0.411519031212   -1.442207441256
 N   -0.327339178298   -0.909366443756   -1.445671630203
 C    1.000789990165   -1.127560336506   -1.430104201540
 H    1.314598273135   -2.174239068996   -1.426724630849
 N    2.013139433206   -0.219579379365   -1.416132931265
 C    1.700922689299    1.091241703884   -1.420779335165
 N    2.708549644101    2.015740341189   -1.462601172096
 H    3.640001181488    1.685210232437   -1.240143237963
 H    2.475812138074    2.975711096228   -1.237790926656
 C    0.335421848425    1.467935557751   -1.429550422880
 N   -0.288107462766    2.706901258381   -1.419672213862
 C   -1.588032949923    2.398821870020   -1.428127067020
 H   -2.398086478710    3.125402671122   -1.424078929157
 H   -2.733395523861    0.581552187386   -1.450765457497
CS   -0.334194619860   -0.918374042857    1.454306277658
