16

 N   -1.829488597367    1.041963369117   -1.492761022890
 C   -0.597362865100    0.411673089109   -1.491806062582
 N   -0.327221928974   -0.909212385859   -1.495270251529
 C    1.000907239489   -1.127406278609   -1.479702822866
 H    1.314715522459   -2.174085011099   -1.476323252175
 N    2.013256682530   -0.219425321468   -1.465731552591
 C    1.701039938623    1.091395761781   -1.470377956491
 N    2.708666893425    2.015894399086   -1.512199793422
 H    3.640118430812    1.685364290334   -1.289741859289
 H    2.475929387398    2.975865154125   -1.287389547982
 C    0.335539097749    1.468089615648   -1.479149044206
 N   -0.287990213442    2.707055316278   -1.469270835188
 C   -1.587915700599    2.398975927917   -1.477725688346
 H   -2.397969229386    3.125556729019   -1.473677550483
 H   -2.733278274537    0.581706245283   -1.500364078823
CS   -0.334313765073   -0.918530591825    1.504706894534
