16

 N   -1.829254098718    1.042271484910   -1.591958265542
 C   -0.597128366451    0.411981204902   -1.591003305234
 N   -0.326987430325   -0.908904270066   -1.594467494181
 C    1.001141738138   -1.127098162816   -1.578900065518
 H    1.314950021108   -2.173776895306   -1.575520494827
 N    2.013491181179   -0.219117205675   -1.564928795243
 C    1.701274437272    1.091703877574   -1.569575199143
 N    2.708901392074    2.016202514879   -1.611397036074
 H    3.640352929461    1.685672406127   -1.388939101941
 H    2.476163886047    2.976173269918   -1.386586790634
 C    0.335773596398    1.468397731441   -1.578346286858
 N   -0.287755714793    2.707363432071   -1.568468077840
 C   -1.587681201950    2.399284043710   -1.576922930998
 H   -2.397734730737    3.125864844812   -1.572874793135
 H   -2.733043775888    0.582014361076   -1.599561321475
CS   -0.334552055498   -0.918843689763    1.605508128286
