16

 N   -1.829136849394    1.042425542807   -1.641556886869
 C   -0.597011117127    0.412135262799   -1.640601926561
 N   -0.326870181001   -0.908750212169   -1.644066115508
 C    1.001258987462   -1.126944104919   -1.628498686845
 H    1.315067270432   -2.173622837409   -1.625119116154
 N    2.013608430503   -0.218963147778   -1.614527416570
 C    1.701391686596    1.091857935471   -1.619173820470
 N    2.709018641398    2.016356572776   -1.660995657401
 H    3.640470178785    1.685826464024   -1.438537723268
 H    2.476281135371    2.976327327815   -1.436185411961
 C    0.335890845722    1.468551789338   -1.627944908185
 N   -0.287638465469    2.707517489968   -1.618066699167
 C   -1.587563952626    2.399438101607   -1.626521552325
 H   -2.397617481413    3.126018902709   -1.622473414462
 H   -2.732926526564    0.582168418973   -1.649159942802
CS   -0.334671200710   -0.919000238732    1.655908745161
