16

 N   -1.828902350745    1.042733658600   -1.740754129521
 C   -0.596776618478    0.412443378592   -1.739799169213
 N   -0.326635682352   -0.908442096376   -1.743263358160
 C    1.001493486111   -1.126635989126   -1.727695929497
 H    1.315301769081   -2.173314721616   -1.724316358806
 N    2.013842929152   -0.218655031985   -1.713724659222
 C    1.701626185245    1.092166051264   -1.718371063122
 N    2.709253140047    2.016664688569   -1.760192900053
 H    3.640704677434    1.686134579817   -1.537734965920
 H    2.476515634020    2.976635443608   -1.535382654613
 C    0.336125344371    1.468859905131   -1.727142150837
 N   -0.287403966820    2.707825605761   -1.717263941819
 C   -1.587329453977    2.399746217400   -1.725718794977
 H   -2.397382982764    3.126327018502   -1.721670657114
 H   -2.732692027915    0.582476534766   -1.748357185454
CS   -0.334909491135   -0.919313336670    1.756709978913
