16

 N   -1.828550602772    1.043195832290   -1.889549993500
 C   -0.596424870505    0.412905552282   -1.888595033192
 N   -0.326283934379   -0.907979922686   -1.892059222139
 C    1.001845234084   -1.126173815436   -1.876491793476
 H    1.315653517054   -2.172852547926   -1.873112222785
 N    2.014194677125   -0.218192858295   -1.862520523201
 C    1.701977933218    1.092628224954   -1.867166927101
 N    2.709604888020    2.017126862259   -1.908988764032
 H    3.641056425407    1.686596753507   -1.686530829899
 H    2.476867381993    2.977097617298   -1.684178518592
 C    0.336477092344    1.469322078821   -1.875938014816
 N   -0.287052218847    2.708287779451   -1.866059805798
 C   -1.586977706004    2.400208391090   -1.874514658956
 H   -2.397031234791    3.126789192192   -1.870466521093
 H   -2.732340279942    0.582938708456   -1.897153049433
CS   -0.335266926772   -0.919782983577    1.907911829541
