16

 N   -1.827847106827    1.044120179670   -2.187141721457
 C   -0.595721374560    0.413829899662   -2.186186761149
 N   -0.325580438434   -0.907055575306   -2.189650950096
 C    1.002548730029   -1.125249468056   -2.174083521433
 H    1.316357012999   -2.171928200546   -2.170703950742
 N    2.014898173070   -0.217268510915   -2.160112251158
 C    1.702681429163    1.093552572334   -2.164758655058
 N    2.710308383965    2.018051209639   -2.206580491989
 H    3.641759921352    1.687521100887   -1.984122557856
 H    2.477570877938    2.978021964678   -1.981770246549
 C    0.337180588289    1.470246426201   -2.173529742773
 N   -0.286348722902    2.709212126831   -2.163651533755
 C   -1.586274210059    2.401132738470   -2.172106386913
 H   -2.396327738846    3.127713539572   -2.168058249050
 H   -2.731636783997    0.583863055836   -2.194744777390
CS   -0.335981798046   -0.920722277390    2.210315530796
