16

 N   -1.826909112233    1.045352642843   -2.583930692067
 C   -0.594783379966    0.415062362835   -2.582975731759
 N   -0.324642443840   -0.905823112133   -2.586439920706
 C    1.003486724623   -1.124017004883   -2.570872492043
 H    1.317295007593   -2.170695737373   -2.567492921352
 N    2.015836167664   -0.216036047742   -2.556901221768
 C    1.703619423757    1.094785035507   -2.561547625668
 N    2.711246378559    2.019283672812   -2.603369462599
 H    3.642697915946    1.688753564060   -2.380911528466
 H    2.478508872532    2.979254427851   -2.378559217159
 C    0.338118582883    1.471478889374   -2.570318713383
 N   -0.285410728308    2.710444590004   -2.560440504365
 C   -1.585336215465    2.402365201643   -2.568895357523
 H   -2.395389744252    3.128946002745   -2.564847219660
 H   -2.730698789403    0.585095519009   -2.591533748000
CS   -0.336934959745   -0.921974669141    2.613520465803
