16

 N   -1.826791862908    1.045506700740   -2.633529313393
 C   -0.594666130641    0.415216420732   -2.632574353085
 N   -0.324525194515   -0.905669054236   -2.636038542032
 C    1.003603973948   -1.123862946986   -2.620471113369
 H    1.317412256918   -2.170541679476   -2.617091542678
 N    2.015953416989   -0.215881989845   -2.606499843094
 C    1.703736673082    1.094939093404   -2.611146246994
 N    2.711363627884    2.019437730709   -2.652968083925
 H    3.642815165271    1.688907621957   -2.430510149792
 H    2.478626121857    2.979408485748   -2.428157838485
 C    0.338235832208    1.471632947271   -2.619917334709
 N   -0.285293478983    2.710598647901   -2.610039125691
 C   -1.585218966140    2.402519259540   -2.618493978849
 H   -2.395272494927    3.129100060642   -2.614445840986
 H   -2.730581540078    0.585249576906   -2.641132369326
CS   -0.337054104957   -0.922131218110    2.663921082679
