16

 N   -1.826440114936    1.045968874430   -2.782325177372
 C   -0.594314382669    0.415678594422   -2.781370217064
 N   -0.324173446543   -0.905206880546   -2.784834406011
 C    1.003955721920   -1.123400773296   -2.769266977348
 H    1.317764004890   -2.170079505786   -2.765887406657
 N    2.016305164961   -0.215419816155   -2.755295707073
 C    1.704088421054    1.095401267094   -2.759942110973
 N    2.711715375856    2.019899904399   -2.801763947904
 H    3.643166913243    1.689369795647   -2.579306013771
 H    2.478977869829    2.979870659438   -2.576953702464
 C    0.338587580180    1.472095120961   -2.768713198688
 N   -0.284941731011    2.711060821591   -2.758834989670
 C   -1.584867218168    2.402981433230   -2.767289842828
 H   -2.394920746955    3.129562234332   -2.763241704965
 H   -2.730229792106    0.585711750596   -2.789928233305
CS   -0.337411540595   -0.922600865016    2.815122933306
