16

 N   -1.826322865611    1.046122932326   -2.831923798698
 C   -0.594197133344    0.415832652318   -2.830968838390
 N   -0.324056197218   -0.905052822650   -2.834433027337
 C    1.004072971245   -1.123246715400   -2.818865598674
 H    1.317881254215   -2.169925447890   -2.815486027983
 N    2.016422414286   -0.215265758259   -2.804894328399
 C    1.704205670379    1.095555324990   -2.809540732299
 N    2.711832625181    2.020053962295   -2.851362569230
 H    3.643284162568    1.689523853543   -2.628904635097
 H    2.479095119154    2.980024717334   -2.626552323790
 C    0.338704829505    1.472249178857   -2.818311820014
 N   -0.284824481686    2.711214879487   -2.808433610996
 C   -1.584749968843    2.403135491126   -2.816888464154
 H   -2.394803497630    3.129716292228   -2.812840326291
 H   -2.730112542781    0.585865808492   -2.839526854631
CS   -0.337530685807   -0.922757413985    2.865523550182
