16

 N   -1.826205616287    1.046276990223   -2.881522420024
 C   -0.594079884020    0.415986710215   -2.880567459716
 N   -0.323938947894   -0.904898764753   -2.884031648663
 C    1.004190220569   -1.123092657503   -2.868464220000
 H    1.317998503539   -2.169771389993   -2.865084649309
 N    2.016539663610   -0.215111700362   -2.854492949725
 C    1.704322919703    1.095709382887   -2.859139353625
 N    2.711949874505    2.020208020192   -2.900961190556
 H    3.643401411892    1.689677911440   -2.678503256423
 H    2.479212368478    2.980178775231   -2.676150945116
 C    0.338822078829    1.472403236754   -2.867910441340
 N   -0.284707232362    2.711368937384   -2.858032232322
 C   -1.584632719519    2.403289549023   -2.866487085480
 H   -2.394686248306    3.129870350125   -2.862438947617
 H   -2.729995293457    0.586019866389   -2.889125475957
CS   -0.337649831019   -0.922913962954    2.915924167058
