16

 N   -1.825736618990    1.046893221810   -3.079916905329
 C   -0.593610886723    0.416602941802   -3.078961945021
 N   -0.323469950597   -0.904282533166   -3.082426133968
 C    1.004659217866   -1.122476425916   -3.066858705305
 H    1.318467500836   -2.169155158406   -3.063479134614
 N    2.017008660907   -0.214495468775   -3.052887435030
 C    1.704791917000    1.096325614474   -3.057533838930
 N    2.712418871802    2.020824251779   -3.099355675861
 H    3.643870409189    1.690294143027   -2.876897741728
 H    2.479681365775    2.980795006818   -2.874545430421
 C    0.339291076126    1.473019468341   -3.066304926645
 N   -0.284238235065    2.711985168971   -3.056426717627
 C   -1.584163722222    2.403905780610   -3.064881570785
 H   -2.394217251009    3.130486581712   -3.060833432922
 H   -2.729526296160    0.586636097976   -3.087519961262
CS   -0.338126411869   -0.923540158830    3.117526634562
