16

 N   -1.825619369666    1.047047279706   -3.129515526655
 C   -0.593493637399    0.416756999698   -3.128560566347
 N   -0.323352701273   -0.904128475270   -3.132024755294
 C    1.004776467190   -1.122322368020   -3.116457326631
 H    1.318584750160   -2.169001100510   -3.113077755940
 N    2.017125910231   -0.214341410879   -3.102486056356
 C    1.704909166324    1.096479672370   -3.107132460256
 N    2.712536121126    2.020978309675   -3.148954297187
 H    3.643987658513    1.690448200923   -2.926496363054
 H    2.479798615099    2.980949064714   -2.924144051747
 C    0.339408325450    1.473173526237   -3.115903547971
 N   -0.284120985741    2.712139226867   -3.106025338953
 C   -1.584046472898    2.404059838506   -3.114480192111
 H   -2.394100001685    3.130640639608   -3.110432054248
 H   -2.729409046836    0.586790155872   -3.137118582588
CS   -0.338245557081   -0.923696707798    3.167927251437
