16

 N   -1.825502120341    1.047201337603   -3.179114147981
 C   -0.593376388074    0.416911057595   -3.178159187673
 N   -0.323235451948   -0.903974417373   -3.181623376620
 C    1.004893716515   -1.122168310123   -3.166055947957
 H    1.318701999485   -2.168847042613   -3.162676377266
 N    2.017243159556   -0.214187352982   -3.152084677682
 C    1.705026415649    1.096633730267   -3.156731081582
 N    2.712653370451    2.021132367572   -3.198552918513
 H    3.644104907838    1.690602258820   -2.976094984380
 H    2.479915864424    2.981103122611   -2.973742673073
 C    0.339525574775    1.473327584134   -3.165502169297
 N   -0.284003736416    2.712293284764   -3.155623960279
 C   -1.583929223573    2.404213896403   -3.164078813437
 H   -2.393982752360    3.130794697505   -3.160030675574
 H   -2.729291797511    0.586944213769   -3.186717203914
CS   -0.338364702294   -0.923853256767    3.218327868313
