16

 N   -1.825150372369    1.047663511293   -3.327910011960
 C   -0.593024640102    0.417373231285   -3.326955051652
 N   -0.322883703976   -0.903512243683   -3.330419240599
 C    1.005245464487   -1.121706136433   -3.314851811936
 H    1.319053747457   -2.168384868923   -3.311472241245
 N    2.017594907528   -0.213725179292   -3.300880541661
 C    1.705378163621    1.097095903957   -3.305526945561
 N    2.713005118423    2.021594541262   -3.347348782492
 H    3.644456655810    1.691064432510   -3.124890848359
 H    2.480267612396    2.981565296301   -3.122538537052
 C    0.339877322747    1.473789757824   -3.314298033276
 N   -0.283651988444    2.712755458454   -3.304419824258
 C   -1.583577475601    2.404676070093   -3.312874677416
 H   -2.393631004388    3.131256871195   -3.308826539553
 H   -2.728940049539    0.587406387459   -3.335513067893
CS   -0.338722137931   -0.924322903674    3.369529718941
