16

 N   -1.824798624396    1.048125684983   -3.476705875939
 C   -0.592672892129    0.417835404975   -3.475750915631
 N   -0.322531956003   -0.903050069993   -3.479215104578
 C    1.005597212460   -1.121243962743   -3.463647675915
 H    1.319405495430   -2.167922695233   -3.460268105224
 N    2.017946655501   -0.213263005602   -3.449676405640
 C    1.705729911594    1.097558077647   -3.454322809540
 N    2.713356866396    2.022056714952   -3.496144646471
 H    3.644808403783    1.691526606200   -3.273686712338
 H    2.480619360369    2.982027469991   -3.271334401031
 C    0.340229070720    1.474251931514   -3.463093897255
 N   -0.283300240471    2.713217632144   -3.453215688237
 C   -1.583225727628    2.405138243783   -3.461670541395
 H   -2.393279256415    3.131719044885   -3.457622403532
 H   -2.728588301566    0.587868561149   -3.484308931872
CS   -0.339079573568   -0.924792550581    3.520731569569
