16

 N   -1.824564125747    1.048433800776   -3.575903118591
 C   -0.592438393480    0.418143520768   -3.574948158283
 N   -0.322297457354   -0.902741954200   -3.578412347230
 C    1.005831711109   -1.120935846950   -3.562844918567
 H    1.319639994079   -2.167614579440   -3.559465347876
 N    2.018181154150   -0.212954889809   -3.548873648292
 C    1.705964410243    1.097866193440   -3.553520052192
 N    2.713591365045    2.022364830745   -3.595341889123
 H    3.645042902432    1.691834721993   -3.372883954990
 H    2.480853859018    2.982335585784   -3.370531643683
 C    0.340463569369    1.474560047307   -3.562291139907
 N   -0.283065741822    2.713525747937   -3.552412930889
 C   -1.582991228979    2.405446359576   -3.560867784047
 H   -2.393044757766    3.132027160678   -3.556819646184
 H   -2.728353802917    0.588176676942   -3.583506174524
CS   -0.339317863993   -0.925105648518    3.621532803320
