16

 N   -1.824212377774    1.048895974466   -3.724698982570
 C   -0.592086645507    0.418605694458   -3.723744022262
 N   -0.321945709381   -0.902279780510   -3.727208211209
 C    1.006183459082   -1.120473673260   -3.711640782546
 H    1.319991742052   -2.167152405750   -3.708261211855
 N    2.018532902123   -0.212492716119   -3.697669512271
 C    1.706316158216    1.098328367130   -3.702315916171
 N    2.713943113018    2.022827004435   -3.744137753102
 H    3.645394650405    1.692296895683   -3.521679818969
 H    2.481205606991    2.982797759474   -3.519327507662
 C    0.340815317342    1.475022220997   -3.711087003886
 N   -0.282713993849    2.713987921627   -3.701208794868
 C   -1.582639481006    2.405908533266   -3.709663648026
 H   -2.392693009793    3.132489334368   -3.705615510163
 H   -2.728002054944    0.588638850632   -3.732302038503
CS   -0.339675299630   -0.925575295425    3.772734653948
