16

 N   -1.824095128450    1.049050032363   -3.774297603896
 C   -0.591969396183    0.418759752355   -3.773342643588
 N   -0.321828460057   -0.902125722613   -3.776806832535
 C    1.006300708406   -1.120319615363   -3.761239403872
 H    1.320108991376   -2.166998347853   -3.757859833181
 N    2.018650151447   -0.212338658222   -3.747268133597
 C    1.706433407540    1.098482425027   -3.751914537497
 N    2.714060362342    2.022981062332   -3.793736374428
 H    3.645511899729    1.692450953580   -3.571278440295
 H    2.481322856315    2.982951817371   -3.568926128988
 C    0.340932566666    1.475176278894   -3.760685625212
 N   -0.282596744525    2.714141979524   -3.750807416194
 C   -1.582522231682    2.406062591163   -3.759262269352
 H   -2.392575760469    3.132643392265   -3.755214131489
 H   -2.727884805620    0.588792908529   -3.781900659829
CS   -0.339794444842   -0.925731844394    3.823135270824
