16

 N   -1.823977879126    1.049204090260   -3.823896225222
 C   -0.591852146859    0.418913810252   -3.822941264914
 N   -0.321711210733   -0.901971664716   -3.826405453861
 C    1.006417957730   -1.120165557466   -3.810838025198
 H    1.320226240700   -2.166844289956   -3.807458454507
 N    2.018767400771   -0.212184600325   -3.796866754923
 C    1.706550656864    1.098636482924   -3.801513158823
 N    2.714177611666    2.023135120229   -3.843334995754
 H    3.645629149053    1.692605011477   -3.620877061621
 H    2.481440105639    2.983105875268   -3.618524750314
 C    0.341049815990    1.475330336791   -3.810284246538
 N   -0.282479495201    2.714296037421   -3.800406037520
 C   -1.582404982358    2.406216649060   -3.808860890678
 H   -2.392458511145    3.132797450162   -3.804812752815
 H   -2.727767556296    0.588946966426   -3.831499281155
CS   -0.339913590054   -0.925888393363    3.873535887700
