16

 N   -1.823860629802    1.049358148156   -3.873494846548
 C   -0.591734897535    0.419067868148   -3.872539886240
 N   -0.321593961409   -0.901817606820   -3.876004075187
 C    1.006535207054   -1.120011499570   -3.860436646524
 H    1.320343490024   -2.166690232060   -3.857057075833
 N    2.018884650095   -0.212030542429   -3.846465376249
 C    1.706667906188    1.098790540820   -3.851111780149
 N    2.714294860990    2.023289178125   -3.892933617080
 H    3.645746398377    1.692759069373   -3.670475682947
 H    2.481557354963    2.983259933164   -3.668123371640
 C    0.341167065314    1.475484394687   -3.859882867864
 N   -0.282362245877    2.714450095317   -3.850004658846
 C   -1.582287733034    2.406370706956   -3.858459512004
 H   -2.392341261821    3.132951508058   -3.854411374141
 H   -2.727650306972    0.589101024322   -3.881097902481
CS   -0.340032735267   -0.926044942332    3.923936504575
