16

 N   -1.823508881829    1.049820321846   -4.022290710527
 C   -0.591383149562    0.419530041838   -4.021335750219
 N   -0.321242213436   -0.901355433130   -4.024799939166
 C    1.006886955027   -1.119549325880   -4.009232510503
 H    1.320695237997   -2.166228058370   -4.005852939812
 N    2.019236398068   -0.211568368739   -3.995261240228
 C    1.707019654161    1.099252714510   -3.999907644128
 N    2.714646608963    2.023751351815   -4.041729481059
 H    3.646098146350    1.693221243063   -3.819271546926
 H    2.481909102936    2.983722106854   -3.816919235619
 C    0.341518813287    1.475946568377   -4.008678731843
 N   -0.282010497904    2.714912269007   -3.998800522825
 C   -1.581935985061    2.406832880646   -4.007255375983
 H   -2.391989513848    3.133413681748   -4.003207238120
 H   -2.727298558999    0.589563198012   -4.029893766460
CS   -0.340390170904   -0.926514589238    4.075138355203
