16

 N   -1.823157133856    1.050282495536   -4.171086574506
 C   -0.591031401589    0.419992215528   -4.170131614198
 N   -0.320890465463   -0.900893259440   -4.173595803145
 C    1.007238703000   -1.119087152190   -4.158028374482
 H    1.321046985970   -2.165765884680   -4.154648803791
 N    2.019588146041   -0.211106195049   -4.144057104207
 C    1.707371402134    1.099714888200   -4.148703508107
 N    2.714998356936    2.024213525505   -4.190525345038
 H    3.646449894323    1.693683416753   -3.968067410905
 H    2.482260850909    2.984184280544   -3.965715099598
 C    0.341870561260    1.476408742067   -4.157474595822
 N   -0.281658749931    2.715374442697   -4.147596386804
 C   -1.581584237088    2.407295054336   -4.156051239962
 H   -2.391637765875    3.133875855438   -4.152003102099
 H   -2.726946811026    0.590025371702   -4.178689630439
CS   -0.340747606541   -0.926984236145    4.226340205831
