16

 N   -1.822570887235    1.051052785020   -4.419079681137
 C   -0.590445154968    0.420762505012   -4.418124720829
 N   -0.320304218842   -0.900122969956   -4.421588909776
 C    1.007824949621   -1.118316862706   -4.406021481113
 H    1.321633232591   -2.164995595196   -4.402641910422
 N    2.020174392662   -0.210335905565   -4.392050210838
 C    1.707957648755    1.100485177684   -4.396696614738
 N    2.715584603557    2.024983814989   -4.438518451669
 H    3.647036140944    1.694453706237   -4.216060517536
 H    2.482847097530    2.984954570028   -4.213708206229
 C    0.342456807881    1.477179031551   -4.405467702453
 N   -0.281072503310    2.716144732181   -4.395589493435
 C   -1.580997990467    2.408065343820   -4.404044346593
 H   -2.391051519254    3.134646144922   -4.399996208730
 H   -2.726360564405    0.590795661186   -4.426682737070
CS   -0.341343332603   -0.927766980989    4.478343290210
