16

 N   -1.822453637910    1.051206842916   -4.468678302463
 C   -0.590327905643    0.420916562908   -4.467723342155
 N   -0.320186969517   -0.899968912060   -4.471187531102
 C    1.007942198946   -1.118162804810   -4.455620102439
 H    1.321750481916   -2.164841537300   -4.452240531748
 N    2.020291641987   -0.210181847669   -4.441648832164
 C    1.708074898080    1.100639235580   -4.446295236064
 N    2.715701852882    2.025137872885   -4.488117072995
 H    3.647153390269    1.694607764133   -4.265659138862
 H    2.482964346855    2.985108627924   -4.263306827555
 C    0.342574057206    1.477333089447   -4.455066323779
 N   -0.280955253985    2.716298790077   -4.445188114761
 C   -1.580880741142    2.408219401716   -4.453642967919
 H   -2.390934269929    3.134800202818   -4.449594830056
 H   -2.726243315080    0.590949719082   -4.476281358396
CS   -0.341462477815   -0.927923529958    4.528743907086
