16

 N   -1.822336388586    1.051360900813   -4.518276923789
 C   -0.590210656319    0.421070620805   -4.517321963481
 N   -0.320069720193   -0.899814854163   -4.520786152428
 C    1.008059448270   -1.118008746913   -4.505218723765
 H    1.321867731240   -2.164687479403   -4.501839153074
 N    2.020408891311   -0.210027789772   -4.491247453490
 C    1.708192147404    1.100793293477   -4.495893857390
 N    2.715819102206    2.025291930782   -4.537715694321
 H    3.647270639593    1.694761822030   -4.315257760188
 H    2.483081596179    2.985262685821   -4.312905448881
 C    0.342691306530    1.477487147344   -4.504664945105
 N   -0.280838004661    2.716452847974   -4.494786736087
 C   -1.580763491818    2.408373459613   -4.503241589245
 H   -2.390817020605    3.134954260715   -4.499193451382
 H   -2.726126065756    0.591103776979   -4.525879979722
CS   -0.341581623028   -0.928080078927    4.579144523962
