16

 N   -1.821984640613    1.051823074503   -4.667072787768
 C   -0.589858908346    0.421532794495   -4.666117827460
 N   -0.319717972220   -0.899352680473   -4.669582016407
 C    1.008411196243   -1.117546573223   -4.654014587744
 H    1.322219479213   -2.164225305713   -4.650635017053
 N    2.020760639284   -0.209565616082   -4.640043317469
 C    1.708543895377    1.101255467167   -4.644689721369
 N    2.716170850179    2.025754104472   -4.686511558300
 H    3.647622387566    1.695223995720   -4.464053624167
 H    2.483433344152    2.985724859511   -4.461701312860
 C    0.343043054503    1.477949321034   -4.653460809084
 N   -0.280486256688    2.716915021664   -4.643582600066
 C   -1.580411743845    2.408835633303   -4.652037453224
 H   -2.390465272632    3.135416434405   -4.647989315361
 H   -2.725774317783    0.591565950669   -4.674675843701
CS   -0.341939058665   -0.928549725834    4.730346374589
