16

 N   -1.821750141965    1.052131190296   -4.766270030420
 C   -0.589624409698    0.421840910288   -4.765315070112
 N   -0.319483473572   -0.899044564680   -4.768779259059
 C    1.008645694891   -1.117238457430   -4.753211830396
 H    1.322453977861   -2.163917189920   -4.749832259705
 N    2.020995137932   -0.209257500289   -4.739240560121
 C    1.708778394025    1.101563582960   -4.743886964021
 N    2.716405348827    2.026062220265   -4.785708800952
 H    3.647856886214    1.695532111513   -4.563250866819
 H    2.483667842800    2.986032975304   -4.560898555512
 C    0.343277553151    1.478257436827   -4.752658051736
 N   -0.280251758040    2.717223137457   -4.742779842718
 C   -1.580177245197    2.409143749096   -4.751234695876
 H   -2.390230773984    3.135724550198   -4.747186558013
 H   -2.725539819135    0.591874066462   -4.773873086353
CS   -0.342177349090   -0.928862823771    4.831147608341
