16

 N   -1.821632892641    1.052285248193   -4.815868651747
 C   -0.589507160374    0.421994968185   -4.814913691439
 N   -0.319366224248   -0.898890506783   -4.818377880386
 C    1.008762944215   -1.117084399533   -4.802810451723
 H    1.322571227185   -2.163763132023   -4.799430881032
 N    2.021112387256   -0.209103442392   -4.788839181448
 C    1.708895643349    1.101717640857   -4.793485585348
 N    2.716522598151    2.026216278162   -4.835307422279
 H    3.647974135538    1.695686169410   -4.612849488146
 H    2.483785092124    2.986187033201   -4.610497176839
 C    0.343394802475    1.478411494724   -4.802256673063
 N   -0.280134508716    2.717377195354   -4.792378464045
 C   -1.580059995873    2.409297806993   -4.800833317203
 H   -2.390113524660    3.135878608095   -4.796785179340
 H   -2.725422569811    0.592028124359   -4.823471707680
CS   -0.342296494302   -0.929019372740    4.881548225217
