16

 N   -1.821515643316    1.052439306089   -4.865467273073
 C   -0.589389911049    0.422149026081   -4.864512312765
 N   -0.319248974923   -0.898736448887   -4.867976501712
 C    1.008880193540   -1.116930341637   -4.852409073049
 H    1.322688476510   -2.163609074127   -4.849029502358
 N    2.021229636581   -0.208949384496   -4.838437802774
 C    1.709012892674    1.101871698753   -4.843084206674
 N    2.716639847476    2.026370336058   -4.884906043605
 H    3.648091384863    1.695840227306   -4.662448109472
 H    2.483902341449    2.986341091097   -4.660095798165
 C    0.343512051800    1.478565552620   -4.851855294389
 N   -0.280017259391    2.717531253250   -4.841977085371
 C   -1.579942746548    2.409451864889   -4.850431938529
 H   -2.389996275335    3.136032665991   -4.846383800666
 H   -2.725305320486    0.592182182255   -4.873070329006
CS   -0.342415639514   -0.929175921709    4.931948842093
