26

 C    0.161008858345    3.601802378709    0.000000000000
 H   -0.101961141655    4.666362378709    0.000000000000
 H    0.764558858345    3.349662378709    0.882310000000
 H    0.764558858345    3.349662378709   -0.882310000000
 C   -1.052231141655    2.692342378709    0.000000000000
 H   -1.733481141655    2.852932378709   -0.866520000000
 H   -1.733481141655    2.852932378709    0.866520000000
 O   -0.677281141655    1.298732378709    0.000000000000
 C   -1.878901141655    0.502942378709    0.000000000000
 H   -2.497581141655    0.737832378709   -0.881590000000
 H   -2.497581141655    0.737832378709    0.881590000000
 H   -1.544571141655   -0.544567621291    0.000000000000
RB    0.019898858345   -0.038157621291    2.805810000000
RB    0.019898858345   -0.038157621291   -2.805810000000
 O    0.621012480580   -1.190833817438    0.000000000000
 C    1.822633414072   -0.395044982510    0.000000000000
 H    2.441309509620   -0.629930115719    0.881589639171
 H    2.441309509620   -0.629930115719   -0.881589639171
 H    1.488302060336    0.652464793487    0.000000000000
 C    0.995965356586   -2.584444232753    0.000000000000
 H    1.677206554774   -2.745037541494    0.866515362517
 H    1.677206554774   -2.745037541494   -0.866515362517
 C   -0.217275614967   -3.493906193391    0.000000000000
 H    0.045695458446   -4.558467158365    0.000000000000
 H   -0.820823855268   -3.241765468921   -0.882304595417
 H   -0.820823855268   -3.241765468921    0.882304595417
