26

 C    0.132274878784    3.656901736028    0.000000000000
 H   -0.130695121216    4.721461736028    0.000000000000
 H    0.735824878784    3.404761736028    0.882310000000
 H    0.735824878784    3.404761736028   -0.882310000000
 C   -1.080965121216    2.747441736028    0.000000000000
 H   -1.762215121216    2.908031736028   -0.866520000000
 H   -1.762215121216    2.908031736028    0.866520000000
 O   -0.706015121216    1.353831736028    0.000000000000
 C   -1.907635121216    0.558041736028    0.000000000000
 H   -2.526315121216    0.792931736028   -0.881590000000
 H   -2.526315121216    0.792931736028    0.881590000000
 H   -1.573305121216   -0.489468263972    0.000000000000
RB   -0.008835121216    0.016941736028    2.805810000000
RB   -0.008835121216    0.016941736028   -2.805810000000
 O    0.730997029227   -1.401736659230    0.000000000000
 C    1.932617962719   -0.605947824302    0.000000000000
 H    2.551294058267   -0.840832957511    0.881589639171
 H    2.551294058267   -0.840832957511   -0.881589639171
 H    1.598286608982    0.441561951695    0.000000000000
 C    1.105949905232   -2.795347074545    0.000000000000
 H    1.787191103421   -2.955940383286    0.866515362517
 H    1.787191103421   -2.955940383286   -0.866515362517
 C   -0.107291066320   -3.704809035183    0.000000000000
 H    0.155680007093   -4.769370000157    0.000000000000
 H   -0.710839306621   -3.452668310713   -0.882304595417
 H   -0.710839306621   -3.452668310713    0.882304595417
