26

 C    0.093962906036    3.730367545786    0.000000000000
 H   -0.169007093964    4.794927545786    0.000000000000
 H    0.697512906036    3.478227545786    0.882310000000
 H    0.697512906036    3.478227545786   -0.882310000000
 C   -1.119277093964    2.820907545786    0.000000000000
 H   -1.800527093964    2.981497545786   -0.866520000000
 H   -1.800527093964    2.981497545786    0.866520000000
 O   -0.744327093964    1.427297545786    0.000000000000
 C   -1.945947093964    0.631507545786    0.000000000000
 H   -2.564627093964    0.866397545786   -0.881590000000
 H   -2.564627093964    0.866397545786    0.881590000000
 H   -1.611617093964   -0.416002454214    0.000000000000
RB   -0.047147093964    0.090407545786    2.805810000000
RB   -0.047147093964    0.090407545786   -2.805810000000
 O    0.877643094090   -1.682940448286    0.000000000000
 C    2.079264027581   -0.887151613358    0.000000000000
 H    2.697940123130   -1.122036746567    0.881589639171
 H    2.697940123130   -1.122036746567   -0.881589639171
 H    1.744932673845    0.160358162639    0.000000000000
 C    1.252595970095   -3.076550863601    0.000000000000
 H    1.933837168284   -3.237144172342    0.866515362517
 H    1.933837168284   -3.237144172342   -0.866515362517
 C    0.039354998543   -3.986012824238    0.000000000000
 H    0.302326071956   -5.050573789213    0.000000000000
 H   -0.564193241758   -3.733872099768   -0.882304595417
 H   -0.564193241758   -3.733872099768    0.882304595417
