26

 C    0.084384912849    3.748733998226    0.000000000000
 H   -0.178585087151    4.813293998226    0.000000000000
 H    0.687934912849    3.496593998226    0.882310000000
 H    0.687934912849    3.496593998226   -0.882310000000
 C   -1.128855087151    2.839273998226    0.000000000000
 H   -1.810105087151    2.999863998226   -0.866520000000
 H   -1.810105087151    2.999863998226    0.866520000000
 O   -0.753905087151    1.445663998226    0.000000000000
 C   -1.955525087151    0.649873998226    0.000000000000
 H   -2.574205087151    0.884763998226   -0.881590000000
 H   -2.574205087151    0.884763998226    0.881590000000
 H   -1.621195087151   -0.397636001774    0.000000000000
RB   -0.056725087151    0.108773998226    2.805810000000
RB   -0.056725087151    0.108773998226   -2.805810000000
 O    0.914304610305   -1.753241395550    0.000000000000
 C    2.115925543797   -0.957452560622    0.000000000000
 H    2.734601639345   -1.192337693831    0.881589639171
 H    2.734601639345   -1.192337693831   -0.881589639171
 H    1.781594190061    0.090057215375    0.000000000000
 C    1.289257486311   -3.146851810865    0.000000000000
 H    1.970498684500   -3.307445119606    0.866515362517
 H    1.970498684500   -3.307445119606   -0.866515362517
 C    0.076016514758   -4.056313771502    0.000000000000
 H    0.338987588171   -5.120874736477    0.000000000000
 H   -0.527531725543   -3.804173047032   -0.882304595417
 H   -0.527531725543   -3.804173047032    0.882304595417
