26

 C    0.074806919662    3.767100450666    0.000000000000
 H   -0.188163080338    4.831660450666    0.000000000000
 H    0.678356919662    3.514960450666    0.882310000000
 H    0.678356919662    3.514960450666   -0.882310000000
 C   -1.138433080338    2.857640450666    0.000000000000
 H   -1.819683080338    3.018230450666   -0.866520000000
 H   -1.819683080338    3.018230450666    0.866520000000
 O   -0.763483080338    1.464030450666    0.000000000000
 C   -1.965103080338    0.668240450666    0.000000000000
 H   -2.583783080338    0.903130450666   -0.881590000000
 H   -2.583783080338    0.903130450666    0.881590000000
 H   -1.630773080338   -0.379269549334    0.000000000000
RB   -0.066303080338    0.127140450666    2.805810000000
RB   -0.066303080338    0.127140450666   -2.805810000000
 O    0.950966126521   -1.823542342814    0.000000000000
 C    2.152587060012   -1.027753507886    0.000000000000
 H    2.771263155561   -1.262638641095    0.881589639171
 H    2.771263155561   -1.262638641095   -0.881589639171
 H    1.818255706276    0.019756268111    0.000000000000
 C    1.325919002526   -3.217152758129    0.000000000000
 H    2.007160200715   -3.377746066870    0.866515362517
 H    2.007160200715   -3.377746066870   -0.866515362517
 C    0.112678030974   -4.126614718766    0.000000000000
 H    0.375649104387   -5.191175683741    0.000000000000
 H   -0.490870209327   -3.874473994296   -0.882304595417
 H   -0.490870209327   -3.874473994296    0.882304595417
