26

 C    0.055650933288    3.803833355545    0.000000000000
 H   -0.207319066712    4.868393355545    0.000000000000
 H    0.659200933288    3.551693355545    0.882310000000
 H    0.659200933288    3.551693355545   -0.882310000000
 C   -1.157589066712    2.894373355545    0.000000000000
 H   -1.838839066712    3.054963355545   -0.866520000000
 H   -1.838839066712    3.054963355545    0.866520000000
 O   -0.782639066712    1.500763355545    0.000000000000
 C   -1.984259066712    0.704973355545    0.000000000000
 H   -2.602939066712    0.939863355545   -0.881590000000
 H   -2.602939066712    0.939863355545    0.881590000000
 H   -1.649929066712   -0.342536644455    0.000000000000
RB   -0.085459066712    0.163873355545    2.805810000000
RB   -0.085459066712    0.163873355545   -2.805810000000
 O    1.024289158952   -1.964144237342    0.000000000000
 C    2.225910092444   -1.168355402414    0.000000000000
 H    2.844586187992   -1.403240535623    0.881589639171
 H    2.844586187992   -1.403240535623   -0.881589639171
 H    1.891578738707   -0.120845626417    0.000000000000
 C    1.399242034957   -3.357754652657    0.000000000000
 H    2.080483233146   -3.518347961398    0.866515362517
 H    2.080483233146   -3.518347961398   -0.866515362517
 C    0.186001063405   -4.267216613294    0.000000000000
 H    0.448972136818   -5.331777578269    0.000000000000
 H   -0.417547176896   -4.015075888824   -0.882304595417
 H   -0.417547176896   -4.015075888824    0.882304595417
