26

 C    0.046072940101    3.822199807985    0.000000000000
 H   -0.216897059899    4.886759807985    0.000000000000
 H    0.649622940101    3.570059807985    0.882310000000
 H    0.649622940101    3.570059807985   -0.882310000000
 C   -1.167167059899    2.912739807985    0.000000000000
 H   -1.848417059899    3.073329807985   -0.866520000000
 H   -1.848417059899    3.073329807985    0.866520000000
 O   -0.792217059899    1.519129807985    0.000000000000
 C   -1.993837059899    0.723339807985    0.000000000000
 H   -2.612517059899    0.958229807985   -0.881590000000
 H   -2.612517059899    0.958229807985    0.881590000000
 H   -1.659507059899   -0.324170192015    0.000000000000
RB   -0.095037059899    0.182239807985    2.805810000000
RB   -0.095037059899    0.182239807985   -2.805810000000
 O    1.060950675168   -2.034445184606    0.000000000000
 C    2.262571608659   -1.238656349678    0.000000000000
 H    2.881247704208   -1.473541482887    0.881589639171
 H    2.881247704208   -1.473541482887   -0.881589639171
 H    1.928240254923   -0.191146573681    0.000000000000
 C    1.435903551173   -3.428055599921    0.000000000000
 H    2.117144749362   -3.588648908662    0.866515362517
 H    2.117144749362   -3.588648908662   -0.866515362517
 C    0.222662579621   -4.337517560558    0.000000000000
 H    0.485633653034   -5.402078525533    0.000000000000
 H   -0.380885660680   -4.085376836088   -0.882304595417
 H   -0.380885660680   -4.085376836088    0.882304595417
