26

 C    0.026916953727    3.858932712864    0.000000000000
 H   -0.236053046273    4.923492712864    0.000000000000
 H    0.630466953727    3.606792712864    0.882310000000
 H    0.630466953727    3.606792712864   -0.882310000000
 C   -1.186323046273    2.949472712864    0.000000000000
 H   -1.867573046273    3.110062712864   -0.866520000000
 H   -1.867573046273    3.110062712864    0.866520000000
 O   -0.811373046273    1.555862712864    0.000000000000
 C   -2.012993046273    0.760072712864    0.000000000000
 H   -2.631673046273    0.994962712864   -0.881590000000
 H   -2.631673046273    0.994962712864    0.881590000000
 H   -1.678663046273   -0.287437287136    0.000000000000
RB   -0.114193046273    0.218972712864    2.805810000000
RB   -0.114193046273    0.218972712864   -2.805810000000
 O    1.134273707599   -2.175047079134    0.000000000000
 C    2.335894641090   -1.379258244206    0.000000000000
 H    2.954570736639   -1.614143377415    0.881589639171
 H    2.954570736639   -1.614143377415   -0.881589639171
 H    2.001563287354   -0.331748468209    0.000000000000
 C    1.509226583604   -3.568657494449    0.000000000000
 H    2.190467781793   -3.729250803190    0.866515362517
 H    2.190467781793   -3.729250803190   -0.866515362517
 C    0.295985612052   -4.478119455086    0.000000000000
 H    0.558956685465   -5.542680420061    0.000000000000
 H   -0.307562628249   -4.225978730616   -0.882304595417
 H   -0.307562628249   -4.225978730616    0.882304595417
