26

 C    0.017338960540    3.877299165303    0.000000000000
 H   -0.245631039460    4.941859165303    0.000000000000
 H    0.620888960540    3.625159165303    0.882310000000
 H    0.620888960540    3.625159165303   -0.882310000000
 C   -1.195901039460    2.967839165303    0.000000000000
 H   -1.877151039460    3.128429165303   -0.866520000000
 H   -1.877151039460    3.128429165303    0.866520000000
 O   -0.820951039460    1.574229165303    0.000000000000
 C   -2.022571039460    0.778439165303    0.000000000000
 H   -2.641251039460    1.013329165303   -0.881590000000
 H   -2.641251039460    1.013329165303    0.881590000000
 H   -1.688241039460   -0.269070834697    0.000000000000
RB   -0.123771039460    0.237339165303    2.805810000000
RB   -0.123771039460    0.237339165303   -2.805810000000
 O    1.170935223815   -2.245348026398    0.000000000000
 C    2.372556157306   -1.449559191470    0.000000000000
 H    2.991232252855   -1.684444324679    0.881589639171
 H    2.991232252855   -1.684444324679   -0.881589639171
 H    2.038224803570   -0.402049415473    0.000000000000
 C    1.545888099820   -3.638958441713    0.000000000000
 H    2.227129298009   -3.799551750454    0.866515362517
 H    2.227129298009   -3.799551750454   -0.866515362517
 C    0.332647128268   -4.548420402350    0.000000000000
 H    0.595618201681   -5.612981367325    0.000000000000
 H   -0.270901112033   -4.296279677880   -0.882304595417
 H   -0.270901112033   -4.296279677880    0.882304595417
