26

 C   -0.020973012209    3.950764975062    0.000000000000
 H   -0.283943012209    5.015324975062    0.000000000000
 H    0.582576987791    3.698624975062    0.882310000000
 H    0.582576987791    3.698624975062   -0.882310000000
 C   -1.234213012209    3.041304975062    0.000000000000
 H   -1.915463012209    3.201894975062   -0.866520000000
 H   -1.915463012209    3.201894975062    0.866520000000
 O   -0.859263012209    1.647694975062    0.000000000000
 C   -2.060883012209    0.851904975062    0.000000000000
 H   -2.679563012209    1.086794975062   -0.881590000000
 H   -2.679563012209    1.086794975062    0.881590000000
 H   -1.726553012209   -0.195605024938    0.000000000000
RB   -0.162083012209    0.310804975062    2.805810000000
RB   -0.162083012209    0.310804975062   -2.805810000000
 O    1.317581288677   -2.526551815454    0.000000000000
 C    2.519202222169   -1.730762980526    0.000000000000
 H    3.137878317717   -1.965648113735    0.881589639171
 H    3.137878317717   -1.965648113735   -0.881589639171
 H    2.184870868433   -0.683253204529    0.000000000000
 C    1.692534164682   -3.920162230769    0.000000000000
 H    2.373775362871   -4.080755539510    0.866515362517
 H    2.373775362871   -4.080755539510   -0.866515362517
 C    0.479293193130   -4.829624191406    0.000000000000
 H    0.742264266543   -5.894185156381    0.000000000000
 H   -0.124255047171   -4.577483466936   -0.882304595417
 H   -0.124255047171   -4.577483466936    0.882304595417
