26

 C   -0.030551005396    3.969131427501    0.000000000000
 H   -0.293521005396    5.033691427501    0.000000000000
 H    0.572998994604    3.716991427501    0.882310000000
 H    0.572998994604    3.716991427501   -0.882310000000
 C   -1.243791005396    3.059671427501    0.000000000000
 H   -1.925041005396    3.220261427501   -0.866520000000
 H   -1.925041005396    3.220261427501    0.866520000000
 O   -0.868841005396    1.666061427501    0.000000000000
 C   -2.070461005396    0.870271427501    0.000000000000
 H   -2.689141005396    1.105161427501   -0.881590000000
 H   -2.689141005396    1.105161427501    0.881590000000
 H   -1.736131005396   -0.177238572499    0.000000000000
RB   -0.171661005396    0.329171427501    2.805810000000
RB   -0.171661005396    0.329171427501   -2.805810000000
 O    1.354242804893   -2.596852762718    0.000000000000
 C    2.555863738384   -1.801063927790    0.000000000000
 H    3.174539833933   -2.035949060999    0.881589639171
 H    3.174539833933   -2.035949060999   -0.881589639171
 H    2.221532384648   -0.753554151793    0.000000000000
 C    1.729195680898   -3.990463178033    0.000000000000
 H    2.410436879087   -4.151056486774    0.866515362517
 H    2.410436879087   -4.151056486774   -0.866515362517
 C    0.515954709346   -4.899925138670    0.000000000000
 H    0.778925782759   -5.964486103645    0.000000000000
 H   -0.087593530955   -4.647784414200   -0.882304595417
 H   -0.087593530955   -4.647784414200    0.882304595417
