26

 C   -0.088018964518    4.079330142139    0.000000000000
 H   -0.350988964518    5.143890142139    0.000000000000
 H    0.515531035482    3.827190142139    0.882310000000
 H    0.515531035482    3.827190142139   -0.882310000000
 C   -1.301258964518    3.169870142139    0.000000000000
 H   -1.982508964518    3.330460142139   -0.866520000000
 H   -1.982508964518    3.330460142139    0.866520000000
 O   -0.926308964518    1.776260142139    0.000000000000
 C   -2.127928964518    0.980470142139    0.000000000000
 H   -2.746608964518    1.215360142139   -0.881590000000
 H   -2.746608964518    1.215360142139    0.881590000000
 H   -1.793598964518   -0.067039857861    0.000000000000
RB   -0.229128964518    0.439370142139    2.805810000000
RB   -0.229128964518    0.439370142139   -2.805810000000
 O    1.574211902187   -3.018658446302    0.000000000000
 C    2.775832835678   -2.222869611374    0.000000000000
 H    3.394508931227   -2.457754744583    0.881589639171
 H    3.394508931227   -2.457754744583   -0.881589639171
 H    2.441501481942   -1.175359835377    0.000000000000
 C    1.949164778192   -4.412268861617    0.000000000000
 H    2.630405976381   -4.572862170358    0.866515362517
 H    2.630405976381   -4.572862170358   -0.866515362517
 C    0.735923806640   -5.321730822254    0.000000000000
 H    0.998894880053   -6.386291787229    0.000000000000
 H    0.132375566338   -5.069590097784   -0.882304595417
 H    0.132375566338   -5.069590097784    0.882304595417
