26

 C   -0.097596957705    4.097696594579    0.000000000000
 H   -0.360566957705    5.162256594579    0.000000000000
 H    0.505953042295    3.845556594579    0.882310000000
 H    0.505953042295    3.845556594579   -0.882310000000
 C   -1.310836957705    3.188236594579    0.000000000000
 H   -1.992086957705    3.348826594579   -0.866520000000
 H   -1.992086957705    3.348826594579    0.866520000000
 O   -0.935886957705    1.794626594579    0.000000000000
 C   -2.137506957705    0.998836594579    0.000000000000
 H   -2.756186957705    1.233726594579   -0.881590000000
 H   -2.756186957705    1.233726594579    0.881590000000
 H   -1.803176957705   -0.048673405421    0.000000000000
RB   -0.238706957705    0.457736594579    2.805810000000
RB   -0.238706957705    0.457736594579   -2.805810000000
 O    1.610873418402   -3.088959393566    0.000000000000
 C    2.812494351894   -2.293170558638    0.000000000000
 H    3.431170447442   -2.528055691847    0.881589639171
 H    3.431170447442   -2.528055691847   -0.881589639171
 H    2.478162998158   -1.245660782641    0.000000000000
 C    1.985826294407   -4.482569808881    0.000000000000
 H    2.667067492596   -4.643163117621    0.866515362517
 H    2.667067492596   -4.643163117621   -0.866515362517
 C    0.772585322855   -5.392031769518    0.000000000000
 H    1.035556396268   -6.456592734493    0.000000000000
 H    0.169037082554   -5.139891045048   -0.882304595417
 H    0.169037082554   -5.139891045048    0.882304595417
