26

 C   -0.145486923640    4.189528856777    0.000000000000
 H   -0.408456923640    5.254088856777    0.000000000000
 H    0.458063076360    3.937388856777    0.882310000000
 H    0.458063076360    3.937388856777   -0.882310000000
 C   -1.358726923640    3.280068856777    0.000000000000
 H   -2.039976923640    3.440658856777   -0.866520000000
 H   -2.039976923640    3.440658856777    0.866520000000
 O   -0.983776923640    1.886458856777    0.000000000000
 C   -2.185396923640    1.090668856777    0.000000000000
 H   -2.804076923640    1.325558856777   -0.881590000000
 H   -2.804076923640    1.325558856777    0.881590000000
 H   -1.851066923640    0.043158856777    0.000000000000
RB   -0.286596923640    0.549568856777    2.805810000000
RB   -0.286596923640    0.549568856777   -2.805810000000
 O    1.794180999480   -3.440464129885    0.000000000000
 C    2.995801932972   -2.644675294958    0.000000000000
 H    3.614478028520   -2.879560428167    0.881589639171
 H    3.614478028520   -2.879560428167   -0.881589639171
 H    2.661470579236   -1.597165518961    0.000000000000
 C    2.169133875486   -4.834074545201    0.000000000000
 H    2.850375073675   -4.994667853941    0.866515362517
 H    2.850375073675   -4.994667853941   -0.866515362517
 C    0.955892903933   -5.743536505838    0.000000000000
 H    1.218863977346   -6.808097470813    0.000000000000
 H    0.352344663632   -5.491395781368   -0.882304595417
 H    0.352344663632   -5.491395781368    0.882304595417
