26

 C   -0.155064916828    4.207895309216    0.000000000000
 H   -0.418034916828    5.272455309216    0.000000000000
 H    0.448485083172    3.955755309216    0.882310000000
 H    0.448485083172    3.955755309216   -0.882310000000
 C   -1.368304916828    3.298435309216    0.000000000000
 H   -2.049554916828    3.459025309216   -0.866520000000
 H   -2.049554916828    3.459025309216    0.866520000000
 O   -0.993354916828    1.904825309216    0.000000000000
 C   -2.194974916828    1.109035309216    0.000000000000
 H   -2.813654916828    1.343925309216   -0.881590000000
 H   -2.813654916828    1.343925309216    0.881590000000
 H   -1.860644916828    0.061525309216    0.000000000000
RB   -0.296174916828    0.567935309216    2.805810000000
RB   -0.296174916828    0.567935309216   -2.805810000000
 O    1.830842515696   -3.510765077149    0.000000000000
 C    3.032463449187   -2.714976242222    0.000000000000
 H    3.651139544736   -2.949861375431    0.881589639171
 H    3.651139544736   -2.949861375431   -0.881589639171
 H    2.698132095451   -1.667466466225    0.000000000000
 C    2.205795391701   -4.904375492465    0.000000000000
 H    2.887036589890   -5.064968801205    0.866515362517
 H    2.887036589890   -5.064968801205   -0.866515362517
 C    0.992554420149   -5.813837453102    0.000000000000
 H    1.255525493562   -6.878398418077    0.000000000000
 H    0.389006179848   -5.561696728632   -0.882304595417
 H    0.389006179848   -5.561696728632    0.882304595417
