26

 C   -0.164642910015    4.226261761656    0.000000000000
 H   -0.427612910015    5.290821761656    0.000000000000
 H    0.438907089985    3.974121761656    0.882310000000
 H    0.438907089985    3.974121761656   -0.882310000000
 C   -1.377882910015    3.316801761656    0.000000000000
 H   -2.059132910015    3.477391761656   -0.866520000000
 H   -2.059132910015    3.477391761656    0.866520000000
 O   -1.002932910015    1.923191761656    0.000000000000
 C   -2.204552910015    1.127401761656    0.000000000000
 H   -2.823232910015    1.362291761656   -0.881590000000
 H   -2.823232910015    1.362291761656    0.881590000000
 H   -1.870222910015    0.079891761656    0.000000000000
RB   -0.305752910015    0.586301761656    2.805810000000
RB   -0.305752910015    0.586301761656   -2.805810000000
 O    1.867504031912   -3.581066024413    0.000000000000
 C    3.069124965403   -2.785277189486    0.000000000000
 H    3.687801060952   -3.020162322695    0.881589639171
 H    3.687801060952   -3.020162322695   -0.881589639171
 H    2.734793611667   -1.737767413489    0.000000000000
 C    2.242456907917   -4.974676439729    0.000000000000
 H    2.923698106106   -5.135269748469    0.866515362517
 H    2.923698106106   -5.135269748469   -0.866515362517
 C    1.029215936365   -5.884138400366    0.000000000000
 H    1.292187009778   -6.948699365341    0.000000000000
 H    0.425667696063   -5.631997675896   -0.882304595417
 H    0.425667696063   -5.631997675896    0.882304595417
