26

 C   -0.183798896389    4.262994666535    0.000000000000
 H   -0.446768896389    5.327554666535    0.000000000000
 H    0.419751103611    4.010854666535    0.882310000000
 H    0.419751103611    4.010854666535   -0.882310000000
 C   -1.397038896389    3.353534666535    0.000000000000
 H   -2.078288896389    3.514124666535   -0.866520000000
 H   -2.078288896389    3.514124666535    0.866520000000
 O   -1.022088896389    1.959924666535    0.000000000000
 C   -2.223708896389    1.164134666535    0.000000000000
 H   -2.842388896389    1.399024666535   -0.881590000000
 H   -2.842388896389    1.399024666535    0.881590000000
 H   -1.889378896389    0.116624666535    0.000000000000
RB   -0.324908896389    0.623034666535    2.805810000000
RB   -0.324908896389    0.623034666535   -2.805810000000
 O    1.940827064343   -3.721667918941    0.000000000000
 C    3.142447997834   -2.925879084014    0.000000000000
 H    3.761124093383   -3.160764217223    0.881589639171
 H    3.761124093383   -3.160764217223   -0.881589639171
 H    2.808116644098   -1.878369308017    0.000000000000
 C    2.315779940348   -5.115278334257    0.000000000000
 H    2.997021138537   -5.275871642997    0.866515362517
 H    2.997021138537   -5.275871642997   -0.866515362517
 C    1.102538968796   -6.024740294894    0.000000000000
 H    1.365510042209   -7.089301259869    0.000000000000
 H    0.498990728495   -5.772599570424   -0.882304595417
 H    0.498990728495   -5.772599570424    0.882304595417
