26

 C   -0.212532875950    4.318094023854    0.000000000000
 H   -0.475502875950    5.382654023854    0.000000000000
 H    0.391017124050    4.065954023854    0.882310000000
 H    0.391017124050    4.065954023854   -0.882310000000
 C   -1.425772875950    3.408634023854    0.000000000000
 H   -2.107022875950    3.569224023854   -0.866520000000
 H   -2.107022875950    3.569224023854    0.866520000000
 O   -1.050822875950    2.015024023854    0.000000000000
 C   -2.252442875950    1.219234023854    0.000000000000
 H   -2.871122875950    1.454124023854   -0.881590000000
 H   -2.871122875950    1.454124023854    0.881590000000
 H   -1.918112875950    0.171724023854    0.000000000000
RB   -0.353642875950    0.678134023854    2.805810000000
RB   -0.353642875950    0.678134023854   -2.805810000000
 O    2.050811612990   -3.932570760733    0.000000000000
 C    3.252432546481   -3.136781925806    0.000000000000
 H    3.871108642030   -3.371667059015    0.881589639171
 H    3.871108642030   -3.371667059015   -0.881589639171
 H    2.918101192745   -2.089272149809    0.000000000000
 C    2.425764488995   -5.326181176049    0.000000000000
 H    3.107005687184   -5.486774484789    0.866515362517
 H    3.107005687184   -5.486774484789   -0.866515362517
 C    1.212523517443   -6.235643136686    0.000000000000
 H    1.475494590856   -7.300204101661    0.000000000000
 H    0.608975277142   -5.983502412216   -0.882304595417
 H    0.608975277142   -5.983502412216    0.882304595417
