26

 C   -0.222110869137    4.336460476294    0.000000000000
 H   -0.485080869137    5.401020476294    0.000000000000
 H    0.381439130863    4.084320476294    0.882310000000
 H    0.381439130863    4.084320476294   -0.882310000000
 C   -1.435350869137    3.427000476294    0.000000000000
 H   -2.116600869137    3.587590476294   -0.866520000000
 H   -2.116600869137    3.587590476294    0.866520000000
 O   -1.060400869137    2.033390476294    0.000000000000
 C   -2.262020869137    1.237600476294    0.000000000000
 H   -2.880700869137    1.472490476294   -0.881590000000
 H   -2.880700869137    1.472490476294    0.881590000000
 H   -1.927690869137    0.190090476294    0.000000000000
RB   -0.363220869137    0.696500476294    2.805810000000
RB   -0.363220869137    0.696500476294   -2.805810000000
 O    2.087473129205   -4.002871707997    0.000000000000
 C    3.289094062697   -3.207082873070    0.000000000000
 H    3.907770158245   -3.441968006279    0.881589639171
 H    3.907770158245   -3.441968006279   -0.881589639171
 H    2.954762708961   -2.159573097073    0.000000000000
 C    2.462426005211   -5.396482123313    0.000000000000
 H    3.143667203400   -5.557075432053    0.866515362517
 H    3.143667203400   -5.557075432053   -0.866515362517
 C    1.249185033658   -6.305944083950    0.000000000000
 H    1.512156107071   -7.370505048925    0.000000000000
 H    0.645636793357   -6.053803359480   -0.882304595417
 H    0.645636793357   -6.053803359480    0.882304595417
