26

 C   -0.241266855511    4.373193381173    0.000000000000
 H   -0.504236855511    5.437753381173    0.000000000000
 H    0.362283144489    4.121053381173    0.882310000000
 H    0.362283144489    4.121053381173   -0.882310000000
 C   -1.454506855511    3.463733381173    0.000000000000
 H   -2.135756855511    3.624323381173   -0.866520000000
 H   -2.135756855511    3.624323381173    0.866520000000
 O   -1.079556855511    2.070123381173    0.000000000000
 C   -2.281176855511    1.274333381173    0.000000000000
 H   -2.899856855511    1.509223381173   -0.881590000000
 H   -2.899856855511    1.509223381173    0.881590000000
 H   -1.946846855511    0.226823381173    0.000000000000
RB   -0.382376855511    0.733233381173    2.805810000000
RB   -0.382376855511    0.733233381173   -2.805810000000
 O    2.160796161637   -4.143473602525    0.000000000000
 C    3.362417095128   -3.347684767598    0.000000000000
 H    3.981093190677   -3.582569900807    0.881589639171
 H    3.981093190677   -3.582569900807   -0.881589639171
 H    3.028085741392   -2.300174991601    0.000000000000
 C    2.535749037642   -5.537084017841    0.000000000000
 H    3.216990235831   -5.697677326581    0.866515362517
 H    3.216990235831   -5.697677326581   -0.866515362517
 C    1.322508066090   -6.446545978478    0.000000000000
 H    1.585479139503   -7.511106943453    0.000000000000
 H    0.718959825789   -6.194405254008   -0.882304595417
 H    0.718959825789   -6.194405254008    0.882304595417
