26

 C   -0.289156821446    4.465025643371    0.000000000000
 H   -0.552126821446    5.529585643371    0.000000000000
 H    0.314393178554    4.212885643371    0.882310000000
 H    0.314393178554    4.212885643371   -0.882310000000
 C   -1.502396821446    3.555565643371    0.000000000000
 H   -2.183646821446    3.716155643371   -0.866520000000
 H   -2.183646821446    3.716155643371    0.866520000000
 O   -1.127446821446    2.161955643371    0.000000000000
 C   -2.329066821446    1.366165643371    0.000000000000
 H   -2.947746821446    1.601055643371   -0.881590000000
 H   -2.947746821446    1.601055643371    0.881590000000
 H   -1.994736821446    0.318655643371    0.000000000000
RB   -0.430266821446    0.825065643371    2.805810000000
RB   -0.430266821446    0.825065643371   -2.805810000000
 O    2.344103742715   -4.494978338845    0.000000000000
 C    3.545724676206   -3.699189503918    0.000000000000
 H    4.164400771755   -3.934074637126    0.881589639171
 H    4.164400771755   -3.934074637126   -0.881589639171
 H    3.211393322470   -2.651679727921    0.000000000000
 C    2.719056618720   -5.888588754161    0.000000000000
 H    3.400297816909   -6.049182062901    0.866515362517
 H    3.400297816909   -6.049182062901   -0.866515362517
 C    1.505815647168   -6.798050714798    0.000000000000
 H    1.768786720581   -7.862611679773    0.000000000000
 H    0.902267406867   -6.545909990328   -0.882304595417
 H    0.902267406867   -6.545909990328    0.882304595417
