26

 C   -0.308312807820    4.501758548250    0.000000000000
 H   -0.571282807820    5.566318548250    0.000000000000
 H    0.295237192180    4.249618548250    0.882310000000
 H    0.295237192180    4.249618548250   -0.882310000000
 C   -1.521552807820    3.592298548250    0.000000000000
 H   -2.202802807820    3.752888548250   -0.866520000000
 H   -2.202802807820    3.752888548250    0.866520000000
 O   -1.146602807820    2.198688548250    0.000000000000
 C   -2.348222807820    1.402898548250    0.000000000000
 H   -2.966902807820    1.637788548250   -0.881590000000
 H   -2.966902807820    1.637788548250    0.881590000000
 H   -2.013892807820    0.355388548250    0.000000000000
RB   -0.449422807820    0.861798548250    2.805810000000
RB   -0.449422807820    0.861798548250   -2.805810000000
 O    2.417426775146   -4.635580233373    0.000000000000
 C    3.619047708637   -3.839791398446    0.000000000000
 H    4.237723804186   -4.074676531654    0.881589639171
 H    4.237723804186   -4.074676531654   -0.881589639171
 H    3.284716354901   -2.792281622449    0.000000000000
 C    2.792379651151   -6.029190648689    0.000000000000
 H    3.473620849340   -6.189783957429    0.866515362517
 H    3.473620849340   -6.189783957429   -0.866515362517
 C    1.579138679599   -6.938652609326    0.000000000000
 H    1.842109753012   -8.003213574301    0.000000000000
 H    0.975590439298   -6.686511884856   -0.882304595417
 H    0.975590439298   -6.686511884856    0.882304595417
