26

 C   -0.327468794195    4.538491453129    0.000000000000
 H   -0.590438794195    5.603051453129    0.000000000000
 H    0.276081205805    4.286351453129    0.882310000000
 H    0.276081205805    4.286351453129   -0.882310000000
 C   -1.540708794195    3.629031453129    0.000000000000
 H   -2.221958794195    3.789621453129   -0.866520000000
 H   -2.221958794195    3.789621453129    0.866520000000
 O   -1.165758794195    2.235421453129    0.000000000000
 C   -2.367378794195    1.439631453129    0.000000000000
 H   -2.986058794195    1.674521453129   -0.881590000000
 H   -2.986058794195    1.674521453129    0.881590000000
 H   -2.033048794195    0.392121453129    0.000000000000
RB   -0.468578794195    0.898531453129    2.805810000000
RB   -0.468578794195    0.898531453129   -2.805810000000
 O    2.490749807577   -4.776182127901    0.000000000000
 C    3.692370741069   -3.980393292974    0.000000000000
 H    4.311046836617   -4.215278426182    0.881589639171
 H    4.311046836617   -4.215278426182   -0.881589639171
 H    3.358039387333   -2.932883516977    0.000000000000
 C    2.865702683583   -6.169792543217    0.000000000000
 H    3.546943881772   -6.330385851957    0.866515362517
 H    3.546943881772   -6.330385851957   -0.866515362517
 C    1.652461712030   -7.079254503854    0.000000000000
 H    1.915432785443   -8.143815468829    0.000000000000
 H    1.048913471729   -6.827113779384   -0.882304595417
 H    1.048913471729   -6.827113779384    0.882304595417
