26

 C   -0.337046787382    4.556857905569    0.000000000000
 H   -0.600016787382    5.621417905569    0.000000000000
 H    0.266503212618    4.304717905569    0.882310000000
 H    0.266503212618    4.304717905569   -0.882310000000
 C   -1.550286787382    3.647397905569    0.000000000000
 H   -2.231536787382    3.807987905569   -0.866520000000
 H   -2.231536787382    3.807987905569    0.866520000000
 O   -1.175336787382    2.253787905569    0.000000000000
 C   -2.376956787382    1.457997905569    0.000000000000
 H   -2.995636787382    1.692887905569   -0.881590000000
 H   -2.995636787382    1.692887905569    0.881590000000
 H   -2.042626787382    0.410487905569    0.000000000000
RB   -0.478156787382    0.916897905569    2.805810000000
RB   -0.478156787382    0.916897905569   -2.805810000000
 O    2.527411323793   -4.846483075165    0.000000000000
 C    3.729032257284   -4.050694240238    0.000000000000
 H    4.347708352833   -4.285579373446    0.881589639171
 H    4.347708352833   -4.285579373446   -0.881589639171
 H    3.394700903548   -3.003184464241    0.000000000000
 C    2.902364199798   -6.240093490481    0.000000000000
 H    3.583605397987   -6.400686799221    0.866515362517
 H    3.583605397987   -6.400686799221   -0.866515362517
 C    1.689123228246   -7.149555451118    0.000000000000
 H    1.952094301659   -8.214116416093    0.000000000000
 H    1.085574987945   -6.897414726648   -0.882304595417
 H    1.085574987945   -6.897414726648    0.882304595417
