26

 C   -0.375358760130    4.630323715327    0.000000000000
 H   -0.638328760130    5.694883715327    0.000000000000
 H    0.228191239870    4.378183715327    0.882310000000
 H    0.228191239870    4.378183715327   -0.882310000000
 C   -1.588598760130    3.720863715327    0.000000000000
 H   -2.269848760130    3.881453715327   -0.866520000000
 H   -2.269848760130    3.881453715327    0.866520000000
 O   -1.213648760130    2.327253715327    0.000000000000
 C   -2.415268760130    1.531463715327    0.000000000000
 H   -3.033948760130    1.766353715327   -0.881590000000
 H   -3.033948760130    1.766353715327    0.881590000000
 H   -2.080938760130    0.483953715327    0.000000000000
RB   -0.516468760130    0.990363715327    2.805810000000
RB   -0.516468760130    0.990363715327   -2.805810000000
 O    2.674057388656   -5.127686864221    0.000000000000
 C    3.875678322147   -4.331898029294    0.000000000000
 H    4.494354417695   -4.566783162502    0.881589639171
 H    4.494354417695   -4.566783162502   -0.881589639171
 H    3.541346968411   -3.284388253297    0.000000000000
 C    3.049010264661   -6.521297279537    0.000000000000
 H    3.730251462850   -6.681890588277    0.866515362517
 H    3.730251462850   -6.681890588277   -0.866515362517
 C    1.835769293108   -7.430759240174    0.000000000000
 H    2.098740366522   -8.495320205149    0.000000000000
 H    1.232221052807   -7.178618515704   -0.882304595417
 H    1.232221052807   -7.178618515704    0.882304595417
