26

 C   -0.384936753317    4.648690167767    0.000000000000
 H   -0.647906753317    5.713250167767    0.000000000000
 H    0.218613246683    4.396550167767    0.882310000000
 H    0.218613246683    4.396550167767   -0.882310000000
 C   -1.598176753317    3.739230167767    0.000000000000
 H   -2.279426753317    3.899820167767   -0.866520000000
 H   -2.279426753317    3.899820167767    0.866520000000
 O   -1.223226753317    2.345620167767    0.000000000000
 C   -2.424846753317    1.549830167767    0.000000000000
 H   -3.043526753317    1.784720167767   -0.881590000000
 H   -3.043526753317    1.784720167767    0.881590000000
 H   -2.090516753317    0.502320167767    0.000000000000
RB   -0.526046753317    1.008730167767    2.805810000000
RB   -0.526046753317    1.008730167767   -2.805810000000
 O    2.710718904871   -5.197987811485    0.000000000000
 C    3.912339838363   -4.402198976558    0.000000000000
 H    4.531015933911   -4.637084109766    0.881589639171
 H    4.531015933911   -4.637084109766   -0.881589639171
 H    3.578008484626   -3.354689200561    0.000000000000
 C    3.085671780876   -6.591598226801    0.000000000000
 H    3.766912979065   -6.752191535541    0.866515362517
 H    3.766912979065   -6.752191535541   -0.866515362517
 C    1.872430809324   -7.501060187438    0.000000000000
 H    2.135401882737   -8.565621152413    0.000000000000
 H    1.268882569023   -7.248919462968   -0.882304595417
 H    1.268882569023   -7.248919462968    0.882304595417
