26

 C   -0.404092739691    4.685423072646    0.000000000000
 H   -0.667062739691    5.749983072646    0.000000000000
 H    0.199457260309    4.433283072646    0.882310000000
 H    0.199457260309    4.433283072646   -0.882310000000
 C   -1.617332739691    3.775963072646    0.000000000000
 H   -2.298582739691    3.936553072646   -0.866520000000
 H   -2.298582739691    3.936553072646    0.866520000000
 O   -1.242382739691    2.382353072646    0.000000000000
 C   -2.444002739691    1.586563072646    0.000000000000
 H   -3.062682739691    1.821453072646   -0.881590000000
 H   -3.062682739691    1.821453072646    0.881590000000
 H   -2.109672739691    0.539053072646    0.000000000000
RB   -0.545202739691    1.045463072646    2.805810000000
RB   -0.545202739691    1.045463072646   -2.805810000000
 O    2.784041937302   -5.338589706013    0.000000000000
 C    3.985662870794   -4.542800871086    0.000000000000
 H    4.604338966342   -4.777686004294    0.881589639171
 H    4.604338966342   -4.777686004294   -0.881589639171
 H    3.651331517058   -3.495291095089    0.000000000000
 C    3.158994813308   -6.732200121329    0.000000000000
 H    3.840236011497   -6.892793430069    0.866515362517
 H    3.840236011497   -6.892793430069   -0.866515362517
 C    1.945753841755   -7.641662081966    0.000000000000
 H    2.208724915168   -8.706223046941    0.000000000000
 H    1.342205601454   -7.389521357496   -0.882304595417
 H    1.342205601454   -7.389521357496    0.882304595417
