26

 C   -0.413670732878    4.703789525086    0.000000000000
 H   -0.676640732878    5.768349525086    0.000000000000
 H    0.189879267122    4.451649525086    0.882310000000
 H    0.189879267122    4.451649525086   -0.882310000000
 C   -1.626910732878    3.794329525086    0.000000000000
 H   -2.308160732878    3.954919525086   -0.866520000000
 H   -2.308160732878    3.954919525086    0.866520000000
 O   -1.251960732878    2.400719525086    0.000000000000
 C   -2.453580732878    1.604929525086    0.000000000000
 H   -3.072260732878    1.839819525086   -0.881590000000
 H   -3.072260732878    1.839819525086    0.881590000000
 H   -2.119250732878    0.557419525086    0.000000000000
RB   -0.554780732878    1.063829525086    2.805810000000
RB   -0.554780732878    1.063829525086   -2.805810000000
 O    2.820703453518   -5.408890653277    0.000000000000
 C    4.022324387009   -4.613101818350    0.000000000000
 H    4.641000482558   -4.847986951558    0.881589639171
 H    4.641000482558   -4.847986951558   -0.881589639171
 H    3.687993033273   -3.565592042353    0.000000000000
 C    3.195656329523   -6.802501068593    0.000000000000
 H    3.876897527712   -6.963094377333    0.866515362517
 H    3.876897527712   -6.963094377333   -0.866515362517
 C    1.982415357971   -7.711963029230    0.000000000000
 H    2.245386431384   -8.776523994205    0.000000000000
 H    1.378867117670   -7.459822304760   -0.882304595417
 H    1.378867117670   -7.459822304760    0.882304595417
