26

 C   -0.423248726065    4.722155977525    0.000000000000
 H   -0.686218726065    5.786715977525    0.000000000000
 H    0.180301273935    4.470015977525    0.882310000000
 H    0.180301273935    4.470015977525   -0.882310000000
 C   -1.636488726065    3.812695977525    0.000000000000
 H   -2.317738726065    3.973285977525   -0.866520000000
 H   -2.317738726065    3.973285977525    0.866520000000
 O   -1.261538726065    2.419085977525    0.000000000000
 C   -2.463158726065    1.623295977525    0.000000000000
 H   -3.081838726065    1.858185977525   -0.881590000000
 H   -3.081838726065    1.858185977525    0.881590000000
 H   -2.128828726065    0.575785977525    0.000000000000
RB   -0.564358726065    1.082195977525    2.805810000000
RB   -0.564358726065    1.082195977525   -2.805810000000
 O    2.857364969734   -5.479191600541    0.000000000000
 C    4.058985903225   -4.683402765614    0.000000000000
 H    4.677661998774   -4.918287898822    0.881589639171
 H    4.677661998774   -4.918287898822   -0.881589639171
 H    3.724654549489   -3.635892989617    0.000000000000
 C    3.232317845739   -6.872802015857    0.000000000000
 H    3.913559043928   -7.033395324597    0.866515362517
 H    3.913559043928   -7.033395324597   -0.866515362517
 C    2.019076874187   -7.782263976494    0.000000000000
 H    2.282047947600   -8.846824941469    0.000000000000
 H    1.415528633885   -7.530123252024   -0.882304595417
 H    1.415528633885   -7.530123252024    0.882304595417
