26

 C   -0.442404712439    4.758888882405    0.000000000000
 H   -0.705374712439    5.823448882405    0.000000000000
 H    0.161145287561    4.506748882405    0.882310000000
 H    0.161145287561    4.506748882405   -0.882310000000
 C   -1.655644712439    3.849428882405    0.000000000000
 H   -2.336894712439    4.010018882405   -0.866520000000
 H   -2.336894712439    4.010018882405    0.866520000000
 O   -1.280694712439    2.455818882405    0.000000000000
 C   -2.482314712439    1.660028882405    0.000000000000
 H   -3.100994712439    1.894918882405   -0.881590000000
 H   -3.100994712439    1.894918882405    0.881590000000
 H   -2.147984712439    0.612518882405    0.000000000000
RB   -0.583514712439    1.118928882405    2.805810000000
RB   -0.583514712439    1.118928882405   -2.805810000000
 O    2.930688002165   -5.619793495069    0.000000000000
 C    4.132308935656   -4.824004660142    0.000000000000
 H    4.750985031205   -5.058889793350    0.881589639171
 H    4.750985031205   -5.058889793350   -0.881589639171
 H    3.797977581920   -3.776494884145    0.000000000000
 C    3.305640878170   -7.013403910385    0.000000000000
 H    3.986882076359   -7.173997219125    0.866515362517
 H    3.986882076359   -7.173997219125   -0.866515362517
 C    2.092399906618   -7.922865871022    0.000000000000
 H    2.355370980031   -8.987426835997    0.000000000000
 H    1.488851666317   -7.670725146552   -0.882304595417
 H    1.488851666317   -7.670725146552    0.882304595417
