26

 C   -0.490294678375    4.850721144603    0.000000000000
 H   -0.753264678375    5.915281144603    0.000000000000
 H    0.113255321625    4.598581144603    0.882310000000
 H    0.113255321625    4.598581144603   -0.882310000000
 C   -1.703534678375    3.941261144603    0.000000000000
 H   -2.384784678375    4.101851144603   -0.866520000000
 H   -2.384784678375    4.101851144603    0.866520000000
 O   -1.328584678375    2.547651144603    0.000000000000
 C   -2.530204678375    1.751861144603    0.000000000000
 H   -3.148884678375    1.986751144603   -0.881590000000
 H   -3.148884678375    1.986751144603    0.881590000000
 H   -2.195874678375    0.704351144603    0.000000000000
RB   -0.631404678375    1.210761144603    2.805810000000
RB   -0.631404678375    1.210761144603   -2.805810000000
 O    3.113995583243   -5.971298231389    0.000000000000
 C    4.315616516734   -5.175509396462    0.000000000000
 H    4.934292612283   -5.410394529670    0.881589639171
 H    4.934292612283   -5.410394529670   -0.881589639171
 H    3.981285162998   -4.127999620465    0.000000000000
 C    3.488948459248   -7.364908646705    0.000000000000
 H    4.170189657437   -7.525501955445    0.866515362517
 H    4.170189657437   -7.525501955445   -0.866515362517
 C    2.275707487696   -8.274370607342    0.000000000000
 H    2.538678561109   -9.338931572317    0.000000000000
 H    1.672159247395   -8.022229882872   -0.882304595417
 H    1.672159247395   -8.022229882872    0.882304595417
