26

 C   -0.499872671562    4.869087597042    0.000000000000
 H   -0.762842671562    5.933647597042    0.000000000000
 H    0.103677328438    4.616947597042    0.882310000000
 H    0.103677328438    4.616947597042   -0.882310000000
 C   -1.713112671562    3.959627597042    0.000000000000
 H   -2.394362671562    4.120217597042   -0.866520000000
 H   -2.394362671562    4.120217597042    0.866520000000
 O   -1.338162671562    2.566017597042    0.000000000000
 C   -2.539782671562    1.770227597042    0.000000000000
 H   -3.158462671562    2.005117597042   -0.881590000000
 H   -3.158462671562    2.005117597042    0.881590000000
 H   -2.205452671562    0.722717597042    0.000000000000
RB   -0.640982671562    1.229127597042    2.805810000000
RB   -0.640982671562    1.229127597042   -2.805810000000
 O    3.150657099459   -6.041599178653    0.000000000000
 C    4.352278032950   -5.245810343726    0.000000000000
 H    4.970954128499   -5.480695476934    0.881589639171
 H    4.970954128499   -5.480695476934   -0.881589639171
 H    4.017946679214   -4.198300567729    0.000000000000
 C    3.525609975464   -7.435209593969    0.000000000000
 H    4.206851173653   -7.595802902709    0.866515362517
 H    4.206851173653   -7.595802902709   -0.866515362517
 C    2.312369003912   -8.344671554606    0.000000000000
 H    2.575340077325   -9.409232519581    0.000000000000
 H    1.708820763611   -8.092530830136   -0.882304595417
 H    1.708820763611   -8.092530830136    0.882304595417
