26

 C   -0.509450664749    4.887454049482    0.000000000000
 H   -0.772420664749    5.952014049482    0.000000000000
 H    0.094099335251    4.635314049482    0.882310000000
 H    0.094099335251    4.635314049482   -0.882310000000
 C   -1.722690664749    3.977994049482    0.000000000000
 H   -2.403940664749    4.138584049482   -0.866520000000
 H   -2.403940664749    4.138584049482    0.866520000000
 O   -1.347740664749    2.584384049482    0.000000000000
 C   -2.549360664749    1.788594049482    0.000000000000
 H   -3.168040664749    2.023484049482   -0.881590000000
 H   -3.168040664749    2.023484049482    0.881590000000
 H   -2.215030664749    0.741084049482    0.000000000000
RB   -0.650560664749    1.247494049482    2.805810000000
RB   -0.650560664749    1.247494049482   -2.805810000000
 O    3.187318615674   -6.111900125917    0.000000000000
 C    4.388939549166   -5.316111290990    0.000000000000
 H    5.007615644714   -5.550996424198    0.881589639171
 H    5.007615644714   -5.550996424198   -0.881589639171
 H    4.054608195430   -4.268601514993    0.000000000000
 C    3.562271491680   -7.505510541233    0.000000000000
 H    4.243512689869   -7.666103849973    0.866515362517
 H    4.243512689869   -7.666103849973   -0.866515362517
 C    2.349030520127   -8.414972501870    0.000000000000
 H    2.612001593540   -9.479533466845    0.000000000000
 H    1.745482279826   -8.162831777400   -0.882304595417
 H    1.745482279826   -8.162831777400    0.882304595417
