26

 C   -0.519028657936    4.905820501921    0.000000000000
 H   -0.781998657936    5.970380501921    0.000000000000
 H    0.084521342064    4.653680501921    0.882310000000
 H    0.084521342064    4.653680501921   -0.882310000000
 C   -1.732268657936    3.996360501921    0.000000000000
 H   -2.413518657936    4.156950501921   -0.866520000000
 H   -2.413518657936    4.156950501921    0.866520000000
 O   -1.357318657936    2.602750501921    0.000000000000
 C   -2.558938657936    1.806960501921    0.000000000000
 H   -3.177618657936    2.041850501921   -0.881590000000
 H   -3.177618657936    2.041850501921    0.881590000000
 H   -2.224608657936    0.759450501921    0.000000000000
RB   -0.660138657936    1.265860501921    2.805810000000
RB   -0.660138657936    1.265860501921   -2.805810000000
 O    3.223980131890   -6.182201073181    0.000000000000
 C    4.425601065381   -5.386412238254    0.000000000000
 H    5.044277160930   -5.621297371462    0.881589639171
 H    5.044277160930   -5.621297371462   -0.881589639171
 H    4.091269711645   -4.338902462257    0.000000000000
 C    3.598933007895   -7.575811488497    0.000000000000
 H    4.280174206084   -7.736404797237    0.866515362517
 H    4.280174206084   -7.736404797237   -0.866515362517
 C    2.385692036343   -8.485273449134    0.000000000000
 H    2.648663109756   -9.549834414109    0.000000000000
 H    1.782143796042   -8.233132724664   -0.882304595417
 H    1.782143796042   -8.233132724664    0.882304595417
