26

 C   -0.528606651123    4.924186954361    0.000000000000
 H   -0.791576651123    5.988746954361    0.000000000000
 H    0.074943348877    4.672046954361    0.882310000000
 H    0.074943348877    4.672046954361   -0.882310000000
 C   -1.741846651123    4.014726954361    0.000000000000
 H   -2.423096651123    4.175316954361   -0.866520000000
 H   -2.423096651123    4.175316954361    0.866520000000
 O   -1.366896651123    2.621116954361    0.000000000000
 C   -2.568516651123    1.825326954361    0.000000000000
 H   -3.187196651123    2.060216954361   -0.881590000000
 H   -3.187196651123    2.060216954361    0.881590000000
 H   -2.234186651123    0.777816954361    0.000000000000
RB   -0.669716651123    1.284226954361    2.805810000000
RB   -0.669716651123    1.284226954361   -2.805810000000
 O    3.260641648106   -6.252502020445    0.000000000000
 C    4.462262581597   -5.456713185518    0.000000000000
 H    5.080938677145   -5.691598318726    0.881589639171
 H    5.080938677145   -5.691598318726   -0.881589639171
 H    4.127931227861   -4.409203409521    0.000000000000
 C    3.635594524111   -7.646112435761    0.000000000000
 H    4.316835722300   -7.806705744501    0.866515362517
 H    4.316835722300   -7.806705744501   -0.866515362517
 C    2.422353552558   -8.555574396398    0.000000000000
 H    2.685324625972   -9.620135361373    0.000000000000
 H    1.818805312257   -8.303433671928   -0.882304595417
 H    1.818805312257   -8.303433671928    0.882304595417
