26

 C   -0.595652603432    5.052752121438    0.000000000000
 H   -0.858622603432    6.117312121438    0.000000000000
 H    0.007897396568    4.800612121438    0.882310000000
 H    0.007897396568    4.800612121438   -0.882310000000
 C   -1.808892603432    4.143292121438    0.000000000000
 H   -2.490142603432    4.303882121438   -0.866520000000
 H   -2.490142603432    4.303882121438    0.866520000000
 O   -1.433942603432    2.749682121438    0.000000000000
 C   -2.635562603432    1.953892121438    0.000000000000
 H   -3.254242603432    2.188782121438   -0.881590000000
 H   -3.254242603432    2.188782121438    0.881590000000
 H   -2.301232603432    0.906382121438    0.000000000000
RB   -0.736762603432    1.412792121438    2.805810000000
RB   -0.736762603432    1.412792121438   -2.805810000000
 O    3.517272261615   -6.744608651293    0.000000000000
 C    4.718893195106   -5.948819816366    0.000000000000
 H    5.337569290655   -6.183704949574    0.881589639171
 H    5.337569290655   -6.183704949574   -0.881589639171
 H    4.384561841370   -4.901310040369    0.000000000000
 C    3.892225137620   -8.138219066609    0.000000000000
 H    4.573466335809   -8.298812375349    0.866515362517
 H    4.573466335809   -8.298812375349   -0.866515362517
 C    2.678984166068   -9.047681027246    0.000000000000
 H    2.941955239481  -10.112241992221    0.000000000000
 H    2.075435925767   -8.795540302776   -0.882304595417
 H    2.075435925767   -8.795540302776    0.882304595417
