26

 C   -0.605230596619    5.071118573878    0.000000000000
 H   -0.868200596619    6.135678573878    0.000000000000
 H   -0.001680596619    4.818978573878    0.882310000000
 H   -0.001680596619    4.818978573878   -0.882310000000
 C   -1.818470596619    4.161658573878    0.000000000000
 H   -2.499720596619    4.322248573878   -0.866520000000
 H   -2.499720596619    4.322248573878    0.866520000000
 O   -1.443520596619    2.768048573878    0.000000000000
 C   -2.645140596619    1.972258573878    0.000000000000
 H   -3.263820596619    2.207148573878   -0.881590000000
 H   -3.263820596619    2.207148573878    0.881590000000
 H   -2.310810596619    0.924748573878    0.000000000000
RB   -0.746340596619    1.431158573878    2.805810000000
RB   -0.746340596619    1.431158573878   -2.805810000000
 O    3.553933777831   -6.814909598557    0.000000000000
 C    4.755554711322   -6.019120763630    0.000000000000
 H    5.374230806871   -6.254005896838    0.881589639171
 H    5.374230806871   -6.254005896838   -0.881589639171
 H    4.421223357586   -4.971610987633    0.000000000000
 C    3.928886653836   -8.208520013873    0.000000000000
 H    4.610127852025   -8.369113322613    0.866515362517
 H    4.610127852025   -8.369113322613   -0.866515362517
 C    2.715645682283   -9.117981974510    0.000000000000
 H    2.978616755697  -10.182542939485    0.000000000000
 H    2.112097441982   -8.865841250040   -0.882304595417
 H    2.112097441982   -8.865841250040    0.882304595417
