26

 C   -0.662698555742    5.181317288516    0.000000000000
 H   -0.925668555742    6.245877288516    0.000000000000
 H   -0.059148555742    4.929177288516    0.882310000000
 H   -0.059148555742    4.929177288516   -0.882310000000
 C   -1.875938555742    4.271857288516    0.000000000000
 H   -2.557188555742    4.432447288516   -0.866520000000
 H   -2.557188555742    4.432447288516    0.866520000000
 O   -1.500988555742    2.878247288516    0.000000000000
 C   -2.702608555742    2.082457288516    0.000000000000
 H   -3.321288555742    2.317347288516   -0.881590000000
 H   -3.321288555742    2.317347288516    0.881590000000
 H   -2.368278555742    1.034947288516    0.000000000000
RB   -0.803808555742    1.541357288516    2.805810000000
RB   -0.803808555742    1.541357288516   -2.805810000000
 O    3.773902875124   -7.236715282141    0.000000000000
 C    4.975523808616   -6.440926447214    0.000000000000
 H    5.594199904164   -6.675811580422    0.881589639171
 H    5.594199904164   -6.675811580422   -0.881589639171
 H    4.641192454880   -5.393416671217    0.000000000000
 C    4.148855751130   -8.630325697457    0.000000000000
 H    4.830096949319   -8.790919006197    0.866515362517
 H    4.830096949319   -8.790919006197   -0.866515362517
 C    2.935614779577   -9.539787658094    0.000000000000
 H    3.198585852990  -10.604348623069    0.000000000000
 H    2.332066539276   -9.287646933624   -0.882304595417
 H    2.332066539276   -9.287646933624    0.882304595417
