16

 N   -0.498415907738    0.629039546763    0.633391652624
 C    0.872199504671    0.828514224604    0.629760018248
 H    1.193983801009    1.872259155480    0.651178833941
 C   -1.098131177167   -0.624075612790    0.608861661968
 O   -2.315905208699   -0.791018318857    0.609857742742
 N   -0.172825161556   -1.660853222632    0.581205124979
 H   -0.567398869419   -2.599367532481    0.560696251581
 C    1.232905216839   -1.574814510314    0.572757074188
 O    1.921225889267   -2.598431732116    0.544649135635
 C    1.762674397904   -0.206425641580    0.601363443322
 C    3.254964291510   -0.022567316118    0.596532633496
 H    3.516511920590    1.045860560750    0.619186801643
 H    3.695108605100   -0.480887535540   -0.302575617950
 H    3.705969498219   -0.521053801424    1.468469470409
 H   -1.140722131067    1.413292584937    0.653287070914
CS   -0.504628708672    0.655497091420   -0.566300557668
