16

 N   -0.498150180673    0.627907933859    0.684703563963
 C    0.872465231736    0.827382611700    0.681071929587
 H    1.194249528074    1.871127542576    0.702490745280
 C   -1.097865450102   -0.625207225694    0.660173573307
 O   -2.315639481634   -0.792149931761    0.661169654081
 N   -0.172559434491   -1.661984835536    0.632517036318
 H   -0.567133142354   -2.600499145385    0.612008162920
 C    1.233170943904   -1.575946123218    0.624068985527
 O    1.921491616332   -2.599563345020    0.595961046974
 C    1.762940124969   -0.207557254484    0.652675354661
 C    3.255230018575   -0.023698929022    0.647844544835
 H    3.516777647655    1.044728947846    0.670498712982
 H    3.695374332165   -0.482019148444   -0.251263706611
 H    3.706235225284   -0.522185414328    1.519781381748
 H   -1.140456404002    1.412160972033    0.704598982253
CS   -0.504880715018    0.656570273905   -0.614962997186
