16

 N   -0.497352999476    0.624513095148    0.838639297980
 C    0.873262412933    0.823987772989    0.835007663604
 H    1.195046709271    1.867732703865    0.856426479297
 C   -1.097068268905   -0.628602064405    0.814109307324
 O   -2.314842300437   -0.795544770472    0.815105388098
 N   -0.171762253294   -1.665379674247    0.786452770335
 H   -0.566335961157   -2.603893984096    0.765943896937
 C    1.233968125101   -1.579340961929    0.778004719544
 O    1.922288797529   -2.602958183731    0.749896780991
 C    1.763737306166   -0.210952093195    0.806611088678
 C    3.256027199772   -0.027093767733    0.801780278852
 H    3.517574828852    1.041334109135    0.824434446999
 H    3.696171513362   -0.485413987155   -0.097327972594
 H    3.707032406481   -0.525580253039    1.673717115765
 H   -1.139659222805    1.408766133322    0.858534716270
CS   -0.505636734054    0.659789821358   -0.760950315743
