16

 N   -0.497087272410    0.623381482245    0.889951209319
 C    0.873528139999    0.822856160086    0.886319574943
 H    1.195312436337    1.866601090962    0.907738390636
 C   -1.096802541839   -0.629733677308    0.865421218663
 O   -2.314576573371   -0.796676383375    0.866417299437
 N   -0.171496526228   -1.666511287150    0.837764681674
 H   -0.566070234091   -2.605025596999    0.817255808276
 C    1.234233852167   -1.580472574832    0.829316630883
 O    1.922554524595   -2.604089796634    0.801208692330
 C    1.764003033232   -0.212083706098    0.857923000017
 C    3.256292926838   -0.028225380636    0.853092190191
 H    3.517840555918    1.040202496232    0.875746358338
 H    3.696437240428   -0.486545600058   -0.046016061255
 H    3.707298133547   -0.526711865942    1.725029027104
 H   -1.139393495739    1.407634520419    0.909846627609
CS   -0.505888740400    0.660863003842   -0.809612755261
