16

 N   -0.496821545345    0.622249869341    0.941263120658
 C    0.873793867064    0.821724547182    0.937631486282
 H    1.195578163402    1.865469478058    0.959050301975
 C   -1.096536814774   -0.630865290212    0.916733130002
 O   -2.314310846306   -0.797807996279    0.917729210776
 N   -0.171230799163   -1.667642900054    0.889076593013
 H   -0.565804507026   -2.606157209903    0.868567719615
 C    1.234499579232   -1.581604187736    0.880628542222
 O    1.922820251660   -2.605221409538    0.852520603669
 C    1.764268760297   -0.213215319002    0.909234911356
 C    3.256558653903   -0.029356993540    0.904404101530
 H    3.518106282983    1.039070883328    0.927058269677
 H    3.696702967493   -0.487677212962    0.005295850084
 H    3.707563860612   -0.527843478846    1.776340938443
 H   -1.139127768674    1.406502907515    0.961158538948
CS   -0.506140746745    0.661936186326   -0.858275194780
