16

 N   -0.496024364148    0.618855030630    1.095198854675
 C    0.874591048261    0.818329708471    1.091567220299
 H    1.196375344599    1.862074639347    1.112986035992
 C   -1.095739633577   -0.634260128923    1.070668864019
 O   -2.313513665109   -0.801202834990    1.071664944793
 N   -0.170433617966   -1.671037738765    1.043012327030
 H   -0.565007325829   -2.609552048614    1.022503453632
 C    1.235296760429   -1.584999026447    1.034564276239
 O    1.923617432857   -2.608616248249    1.006456337686
 C    1.765065941494   -0.216610157713    1.063170645373
 C    3.257355835100   -0.032751832251    1.058339835547
 H    3.518903464180    1.035676044617    1.080994003694
 H    3.697500148690   -0.491072051673    0.159231584101
 H    3.708361041809   -0.531238317557    1.930276672460
 H   -1.138330587477    1.403108068804    1.115094272965
CS   -0.506896765782    0.665155733779   -1.004262513336
