16

 N   -0.495492910017    0.616591804822    1.197822677352
 C    0.875122502392    0.816066482663    1.194191042976
 H    1.196906798730    1.859811413539    1.215609858669
 C   -1.095208179446   -0.636523354731    1.173292686696
 O   -2.312982210978   -0.803466060798    1.174288767470
 N   -0.169902163835   -1.673300964573    1.145636149707
 H   -0.564475871698   -2.611815274422    1.125127276309
 C    1.235828214560   -1.587262252255    1.137188098916
 O    1.924148886988   -2.610879474057    1.109080160363
 C    1.765597395625   -0.218873383521    1.165794468050
 C    3.257887289231   -0.035015058059    1.160963658224
 H    3.519434918311    1.033412818809    1.183617826371
 H    3.698031602821   -0.493335277481    0.261855406778
 H    3.708892495940   -0.533501543365    2.032900495137
 H   -1.137799133346    1.400844842996    1.217718095642
CS   -0.507400778473    0.667302098748   -1.101587392374
