16

 N   -0.495227182951    0.615460191918    1.249134588691
 C    0.875388229458    0.814934869759    1.245502954315
 H    1.197172525796    1.858679800635    1.266921770008
 C   -1.094942452380   -0.637654967635    1.224604598035
 O   -2.312716483912   -0.804597673702    1.225600678809
 N   -0.169636436769   -1.674432577477    1.196948061046
 H   -0.564210144632   -2.612946887326    1.176439187648
 C    1.236093941626   -1.588393865159    1.188500010255
 O    1.924414614054   -2.612011086961    1.160392071702
 C    1.765863122691   -0.220004996425    1.217106379389
 C    3.258153016297   -0.036146670963    1.212275569563
 H    3.519700645377    1.032281205905    1.234929737710
 H    3.698297329887   -0.494466890385    0.313167318117
 H    3.709158223006   -0.534633156269    2.084212406476
 H   -1.137533406280    1.399713230092    1.269030006981
CS   -0.507652784818    0.668375281232   -1.150249831893
