16

 N   -0.494695728820    0.613196966111    1.351758411369
 C    0.875919683589    0.812671643952    1.348126776993
 H    1.197703979927    1.856416574828    1.369545592686
 C   -1.094410998249   -0.639918193442    1.327228420713
 O   -2.312185029781   -0.806860899509    1.328224501487
 N   -0.169104982638   -1.676695803284    1.299571883724
 H   -0.563678690501   -2.615210113133    1.279063010326
 C    1.236625395757   -1.590657090966    1.291123832933
 O    1.924946068185   -2.614274312768    1.263015894380
 C    1.766394576822   -0.222268222232    1.319730202067
 C    3.258684470428   -0.038409896770    1.314899392241
 H    3.520232099508    1.030017980098    1.337553560388
 H    3.698828784018   -0.496730116192    0.415791140795
 H    3.709689677137   -0.536896382076    2.186836229154
 H   -1.137001952149    1.397450004285    1.371653829659
CS   -0.508156797509    0.670521646201   -1.247574710930
