16

 N   -0.492038458164    0.601880837073    1.864877524758
 C    0.878576954245    0.801355514914    1.861245890382
 H    1.200361250583    1.845100445790    1.882664706075
 C   -1.091753727593   -0.651234322480    1.840347534102
 O   -2.309527759125   -0.818177028547    1.841343614876
 N   -0.166447711982   -1.688011932322    1.812690997113
 H   -0.561021419845   -2.626526242171    1.792182123715
 C    1.239282666413   -1.601973220004    1.804242946322
 O    1.927603338841   -2.625590441806    1.776135007769
 C    1.769051847478   -0.233584351270    1.832849315456
 C    3.261341741084   -0.049726025808    1.828018505630
 H    3.522889370164    1.018701851060    1.850672673777
 H    3.701486054674   -0.508046245230    0.928910254184
 H    3.712346947793   -0.548212511114    2.699955342543
 H   -1.134344681493    1.386133875247    1.884772943048
CS   -0.510676860965    0.681253471044   -1.734199106118
