16

 N   -0.491507004033    0.599617611266    1.967501347436
 C    0.879108408376    0.799092289107    1.963869713060
 H    1.200892704714    1.842837219983    1.985288528753
 C   -1.091222273462   -0.653497548287    1.942971356780
 O   -2.308996304994   -0.820440254354    1.943967437554
 N   -0.165916257851   -1.690275158129    1.915314819791
 H   -0.560489965714   -2.628789467978    1.894805946393
 C    1.239814120544   -1.604236445811    1.906866769000
 O    1.928134792972   -2.627853667613    1.878758830447
 C    1.769583301609   -0.235847577077    1.935473138134
 C    3.261873195215   -0.051989251615    1.930642328308
 H    3.523420824295    1.016438625253    1.953296496455
 H    3.702017508805   -0.510309471037    1.031534076862
 H    3.712878401924   -0.550475736921    2.802579165221
 H   -1.133813227362    1.383870649440    1.987396765726
CS   -0.511180873656    0.683399836013   -1.831523985156
