16

 N   -0.491241276967    0.598485998362    2.018813258775
 C    0.879374135442    0.797960676203    2.015181624399
 H    1.201158431780    1.841705607079    2.036600440092
 C   -1.090956546396   -0.654629161191    1.994283268119
 O   -2.308730577928   -0.821571867258    1.995279348893
 N   -0.165650530785   -1.691406771033    1.966626731130
 H   -0.560224238648   -2.629921080882    1.946117857732
 C    1.240079847610   -1.605368058715    1.958178680339
 O    1.928400520038   -2.628985280517    1.930070741786
 C    1.769849028675   -0.236979189981    1.986785049473
 C    3.262138922281   -0.053120864519    1.981954239647
 H    3.523686551361    1.015307012349    2.004608407794
 H    3.702283235871   -0.511441083941    1.082845988201
 H    3.713144128990   -0.551607349825    2.853891076560
 H   -1.133547500296    1.382739036536    2.038708677065
CS   -0.511432880001    0.684473018498   -1.880186424674
