16

 N   -0.490975549902    0.597354385458    2.070125170114
 C    0.879639862507    0.796829063299    2.066493535738
 H    1.201424158845    1.840573994175    2.087912351431
 C   -1.090690819331   -0.655760774095    2.045595179458
 O   -2.308464850863   -0.822703480162    2.046591260232
 N   -0.165384803720   -1.692538383937    2.017938642469
 H   -0.559958511583   -2.631052693786    1.997429769071
 C    1.240345574675   -1.606499671619    2.009490591678
 O    1.928666247103   -2.630116893421    1.981382653125
 C    1.770114755740   -0.238110802885    2.038096960812
 C    3.262404649346   -0.054252477423    2.033266150986
 H    3.523952278426    1.014175399445    2.055920319133
 H    3.702548962936   -0.512572696845    1.134157899540
 H    3.713409856055   -0.552738962729    2.905202987899
 H   -1.133281773231    1.381607423632    2.090020588404
CS   -0.511684886347    0.685546200982   -1.928848864193
