16

 N   -0.489912641639    0.592827933843    2.275372815469
 C    0.880702770770    0.792302611684    2.271741181093
 H    1.202487067108    1.836047542560    2.293159996786
 C   -1.089627911068   -0.660287225710    2.250842824813
 O   -2.307401942600   -0.827229931777    2.251838905587
 N   -0.164321895457   -1.697064835552    2.223186287824
 H   -0.558895603320   -2.635579145401    2.202677414426
 C    1.241408482938   -1.611026123234    2.214738237033
 O    1.929729155366   -2.634643345036    2.186630298480
 C    1.771177664003   -0.242637254500    2.243344606167
 C    3.263467557609   -0.058778929038    2.238513796341
 H    3.525015186689    1.009648947830    2.261167964488
 H    3.703611871199   -0.517099148460    1.339405544895
 H    3.714472764318   -0.557265414344    3.110450633254
 H   -1.132218864968    1.377080972017    2.295268233759
CS   -0.512692911729    0.689838930919   -2.123498622268
