16

 N   -0.488849733377    0.588301482228    2.480620460825
 C    0.881765679032    0.787776160069    2.476988826449
 H    1.203549975370    1.831521090945    2.498407642142
 C   -1.088565002806   -0.664813677325    2.456090470169
 O   -2.306339034338   -0.831756383392    2.457086550943
 N   -0.163258987195   -1.701591287167    2.428433933180
 H   -0.557832695058   -2.640105597016    2.407925059782
 C    1.242471391200   -1.615552574849    2.419985882389
 O    1.930792063628   -2.639169796651    2.391877943836
 C    1.772240572265   -0.247163706115    2.448592251523
 C    3.264530465871   -0.063305380653    2.443761441697
 H    3.526078094951    1.005122496215    2.466415609844
 H    3.704674779461   -0.521625600075    1.544653190251
 H    3.715535672580   -0.561791865959    3.315698278610
 H   -1.131155956706    1.372554520402    2.500515879115
CS   -0.513700937111    0.694131660857   -2.318148380343
