16

 N   -0.488318279246    0.586038256421    2.583244283503
 C    0.882297133163    0.785512934262    2.579612649127
 H    1.204081429501    1.829257865138    2.601031464820
 C   -1.088033548675   -0.667076903132    2.558714292847
 O   -2.305807580207   -0.834019609199    2.559710373621
 N   -0.162727533064   -1.703854512974    2.531057755858
 H   -0.557301240927   -2.642368822823    2.510548882460
 C    1.243002845331   -1.617815800656    2.522609705067
 O    1.931323517759   -2.641433022458    2.494501766514
 C    1.772772026396   -0.249426931922    2.551216074201
 C    3.265061920002   -0.065568606460    2.546385264375
 H    3.526609549082    1.002859270408    2.569039432522
 H    3.705206233592   -0.523888825882    1.647277012929
 H    3.716067126711   -0.564055091766    3.418322101288
 H   -1.130624502575    1.370291294595    2.603139701793
CS   -0.514204949802    0.696278025825   -2.415473259381
