16

 N   -0.486458189786    0.578116966095    2.942427662875
 C    0.884157222623    0.777591643936    2.938796028499
 H    1.205941518961    1.821336574812    2.960214844192
 C   -1.086173459215   -0.674998193458    2.917897672219
 O   -2.303947490747   -0.841940899525    2.918893752993
 N   -0.160867443604   -1.711775803300    2.890241135230
 H   -0.555441151467   -2.650290113149    2.869732261832
 C    1.244862934791   -1.625737090982    2.881793084439
 O    1.933183607219   -2.649354312784    2.853685145886
 C    1.774632115856   -0.257348222248    2.910399453573
 C    3.266922009462   -0.073489896786    2.905568643747
 H    3.528469638542    0.994937980082    2.928222811894
 H    3.707066323052   -0.531810116208    2.006460392301
 H    3.717927216171   -0.571976382092    3.777505480660
 H   -1.128764413115    1.362370004269    2.962323081165
CS   -0.515968994221    0.703790303216   -2.756110336012
