16

 N   -0.485661008590    0.574722127384    3.096363396891
 C    0.884954403819    0.774196805225    3.092731762515
 H    1.206738700157    1.817941736101    3.114150578208
 C   -1.085376278019   -0.678393032169    3.071833406235
 O   -2.303150309551   -0.845335738236    3.072829487009
 N   -0.160070262408   -1.715170642011    3.044176869246
 H   -0.554643970271   -2.653684951860    3.023667995848
 C    1.245660115987   -1.629131929693    3.035728818455
 O    1.933980788415   -2.652749151495    3.007620879902
 C    1.775429297052   -0.260743060959    3.064335187589
 C    3.267719190658   -0.076884735497    3.059504377763
 H    3.529266819738    0.991543141371    3.082158545910
 H    3.707863504248   -0.535204954919    2.160396126317
 H    3.718724397367   -0.575371220803    3.931441214676
 H   -1.127967231919    1.358975165558    3.116258815181
CS   -0.516725013257    0.707009850669   -2.902097654568
