16

 N   -0.485395281524    0.573590514480    3.147675308230
 C    0.885220130885    0.773065192321    3.144043673854
 H    1.207004427223    1.816810123197    3.165462489547
 C   -1.085110550953   -0.679524645073    3.123145317574
 O   -2.302884582485   -0.846467351140    3.124141398348
 N   -0.159804535342   -1.716302254915    3.095488780585
 H   -0.554378243205   -2.654816564764    3.074979907187
 C    1.245925843053   -1.630263542597    3.087040729794
 O    1.934246515481   -2.653880764399    3.058932791241
 C    1.775695024118   -0.261874673863    3.115647098928
 C    3.267984917724   -0.078016348401    3.110816289102
 H    3.529532546804    0.990411528467    3.133470457249
 H    3.708129231314   -0.536336567823    2.211708037656
 H    3.718990124433   -0.576502833707    3.982753126015
 H   -1.127701504853    1.357843552654    3.167570726520
CS   -0.516977019603    0.708083033153   -2.950760094087
