16

 N   -0.485129554458    0.572458901576    3.198987219569
 C    0.885485857951    0.771933579417    3.195355585193
 H    1.207270154289    1.815678510293    3.216774400886
 C   -1.084844823887   -0.680656257977    3.174457228913
 O   -2.302618855419   -0.847598964044    3.175453309687
 N   -0.159538808276   -1.717433867819    3.146800691924
 H   -0.554112516139   -2.655948177668    3.126291818526
 C    1.246191570119   -1.631395155501    3.138352641133
 O    1.934512242547   -2.655012377303    3.110244702580
 C    1.775960751184   -0.263006286767    3.166959010267
 C    3.268250644790   -0.079147961305    3.162128200441
 H    3.529798273870    0.989279915563    3.184782368588
 H    3.708394958380   -0.537468180727    2.263019948995
 H    3.719255851499   -0.577634446611    4.034065037354
 H   -1.127435777787    1.356711939750    3.218882637859
CS   -0.517229025948    0.709156215637   -2.999422533606
