16

 N   -0.483269464999    0.564537611250    3.558170598942
 C    0.887345947410    0.764012289091    3.554538964566
 H    1.209130243748    1.807757219967    3.575957780259
 C   -1.082984734428   -0.688577548303    3.533640608286
 O   -2.300758765960   -0.855520254370    3.534636689060
 N   -0.157678718817   -1.725355158145    3.505984071297
 H   -0.552252426680   -2.663869467994    3.485475197899
 C    1.248051659578   -1.639316445827    3.497536020506
 O    1.936372332006   -2.662933667629    3.469428081953
 C    1.777820840643   -0.270927577093    3.526142389640
 C    3.270110734249   -0.087069251631    3.521311579814
 H    3.531658363329    0.981358625237    3.543965747961
 H    3.710255047839   -0.545389471053    2.622203328368
 H    3.721115940958   -0.585555736937    4.393248416727
 H   -1.125575688328    1.348790649424    3.578066017232
CS   -0.518993070367    0.716668493028   -3.340059610237
