16

 N   -0.483003737934    0.563405998346    3.609482510280
 C    0.887611674475    0.762880676187    3.605850875904
 H    1.209395970813    1.806625607063    3.627269691597
 C   -1.082719007363   -0.689709161207    3.584952519624
 O   -2.300493038895   -0.856651867274    3.585948600398
 N   -0.157412991752   -1.726486771049    3.557295982635
 H   -0.551986699615   -2.665001080898    3.536787109237
 C    1.248317386643   -1.640448058731    3.548847931844
 O    1.936638059071   -2.664065280533    3.520739993291
 C    1.778086567708   -0.272059189997    3.577454300978
 C    3.270376461314   -0.088200864535    3.572623491152
 H    3.531924090394    0.980227012333    3.595277659299
 H    3.710520774904   -0.546521083957    2.673515239706
 H    3.721381668023   -0.586687349841    4.444560328065
 H   -1.125309961263    1.347659036520    3.629377928570
CS   -0.519245076712    0.717741675512   -3.388722049756
