16

 N   -0.480612194343    0.553221482212    4.071289712331
 C    0.890003218066    0.752696160053    4.067658077955
 H    1.211787514404    1.796441090929    4.089076893648
 C   -1.080327463772   -0.699893677341    4.046759721675
 O   -2.298101495304   -0.866836383408    4.047755802449
 N   -0.155021448161   -1.736671287183    4.019103184686
 H   -0.549595156024   -2.675185597032    3.998594311288
 C    1.250708930234   -1.650632574865    4.010655133895
 O    1.939029602662   -2.674249796667    3.982547195342
 C    1.780478111299   -0.282243706131    4.039261503029
 C    3.272768004905   -0.098385380669    4.034430693203
 H    3.534315633985    0.970042496199    4.057084861350
 H    3.712912318495   -0.556705600091    3.135322441757
 H    3.723773211614   -0.596871865975    4.906367530116
 H   -1.122918417672    1.337474520386    4.091185130621
CS   -0.521513133822    0.727400317871   -3.826684005425
