16

 N   -0.480346467278    0.552089869309    4.122601623669
 C    0.890268945131    0.751564547150    4.118969989293
 H    1.212053241469    1.795309478026    4.140388804986
 C   -1.080061736707   -0.701025290244    4.098071633013
 O   -2.297835768239   -0.867967996311    4.099067713787
 N   -0.154755721096   -1.737802900086    4.070415096024
 H   -0.549329428959   -2.676317209935    4.049906222626
 C    1.250974657299   -1.651764187768    4.061967045233
 O    1.939295329727   -2.675381409570    4.033859106680
 C    1.780743838364   -0.283375319034    4.090573414367
 C    3.273033731970   -0.099516993572    4.085742604541
 H    3.534581361050    0.968910883296    4.108396772688
 H    3.713178045560   -0.557837212994    3.186634353095
 H    3.724038938679   -0.598003478878    4.957679441454
 H   -1.122652690607    1.336342907483    4.142497041959
CS   -0.521765140168    0.728473500356   -3.875346444944
