16

 N   -0.478220650753    0.543036966079    4.533096914381
 C    0.892394761656    0.742511643920    4.529465280005
 H    1.214179057994    1.786256574796    4.550884095698
 C   -1.077935920182   -0.710078193474    4.508566923725
 O   -2.295709951714   -0.877020899541    4.509563004499
 N   -0.152629904571   -1.746855803316    4.480910386736
 H   -0.547203612434   -2.685370113165    4.460401513338
 C    1.253100473824   -1.660817090998    4.472462335945
 O    1.941421146252   -2.684434312800    4.444354397392
 C    1.782869654889   -0.292428222264    4.501068705079
 C    3.275159548495   -0.108569896802    4.496237895253
 H    3.536707177575    0.959857980066    4.518892063400
 H    3.715303862085   -0.566890116224    3.597129643807
 H    3.726164755204   -0.607056382108    5.368174732166
 H   -1.120526874082    1.327290004253    4.552992332671
CS   -0.523781190932    0.737058960230   -4.264645961094
