16

 N   -0.477954923687    0.541905353175    4.584408825719
 C    0.892660488722    0.741380031016    4.580777191343
 H    1.214444785060    1.785124961892    4.602196007036
 C   -1.077670193116   -0.711209806378    4.559878835063
 O   -2.295444224648   -0.878152512445    4.560874915837
 N   -0.152364177505   -1.747987416220    4.532222298074
 H   -0.546937885368   -2.686501726069    4.511713424676
 C    1.253366200890   -1.661948703902    4.523774247283
 O    1.941686873318   -2.685565925704    4.495666308730
 C    1.783135381955   -0.293559835168    4.552380616417
 C    3.275425275561   -0.109701509706    4.547549806591
 H    3.536972904641    0.958726367162    4.570203974738
 H    3.715569589151   -0.568021729128    3.648441555145
 H    3.726430482270   -0.608187995012    5.419486643504
 H   -1.120261147016    1.326158391349    4.604304244009
CS   -0.524033197277    0.738132142715   -4.313308400613
