16

 N   -0.477423469556    0.539642127368    4.687032648397
 C    0.893191942853    0.739116805209    4.683401014021
 H    1.214976239191    1.782861736085    4.704819829714
 C   -1.077138738985   -0.713473032185    4.662502657741
 O   -2.294912770517   -0.880415738252    4.663498738515
 N   -0.151832723374   -1.750250642027    4.634846120752
 H   -0.546406431237   -2.688764951876    4.614337247354
 C    1.253897655021   -1.664211929709    4.626398069961
 O    1.942218327449   -2.687829151511    4.598290131408
 C    1.783666836086   -0.295823060975    4.655004439095
 C    3.275956729692   -0.111964735513    4.650173629269
 H    3.537504358772    0.956463141355    4.672827797416
 H    3.716101043282   -0.570284954935    3.751065377823
 H    3.726961936401   -0.610451220819    5.522110466182
 H   -1.119729692885    1.323895165542    4.706928066687
CS   -0.524537209968    0.740278507683   -4.410633279650
