16

 N   -0.477157742490    0.538510514464    4.738344559736
 C    0.893457669919    0.737985192305    4.734712925360
 H    1.215241966257    1.781730123181    4.756131741053
 C   -1.076873011919   -0.714604645089    4.713814569080
 O   -2.294647043451   -0.881547351156    4.714810649854
 N   -0.151566996308   -1.751382254931    4.686158032091
 H   -0.546140704171   -2.689896564780    4.665649158693
 C    1.254163382087   -1.665343542613    4.677709981300
 O    1.942484054515   -2.688960764415    4.649602042747
 C    1.783932563152   -0.296954673879    4.706316350434
 C    3.276222456758   -0.113096348417    4.701485540608
 H    3.537770085838    0.955331528451    4.724139708755
 H    3.716366770348   -0.571416567839    3.802377289162
 H    3.727227663467   -0.611582833723    5.573422377521
 H   -1.119463965819    1.322763552638    4.758239978026
CS   -0.524789216314    0.741351690168   -4.459295719169
