9

 C   -2.012597430099   -0.567896832620   -0.547238631549
 H   -2.991524430099   -0.076108832620   -0.547238631549
 H   -1.905451430099   -1.207705832620    0.341033368451
 H   -1.905451430099   -1.207705832620   -1.435510631549
 C   -0.927970430099    0.477687167380   -0.547238631549
 O   -1.089074430099    1.687238167380   -0.547238631549
 O    0.314315569901   -0.099320832620   -0.547238631549
 H    0.948851569901    0.639242167380   -0.547238631549
RB    0.630988893844   -0.264383942568    0.386823558905
