9

 C   -2.031150357111   -0.558226286982   -0.601962494704
 H   -3.010077357111   -0.066438286982   -0.601962494704
 H   -1.924004357111   -1.198035286982    0.286309505296
 H   -1.924004357111   -1.198035286982   -1.490234494704
 C   -0.946523357111    0.487357713018   -0.601962494704
 O   -1.107627357111    1.696908713018   -0.601962494704
 O    0.295762642889   -0.089650286982   -0.601962494704
 H    0.930298642889    0.648912713018   -0.601962494704
RB    0.644103299226   -0.271219707926    0.425505914796
