9

 C   -2.049703284123   -0.548555741345   -0.656686357859
 H   -3.028630284123   -0.056767741345   -0.656686357859
 H   -1.942557284123   -1.188364741345    0.231585642141
 H   -1.942557284123   -1.188364741345   -1.544958357859
 C   -0.965076284123    0.497028258655   -0.656686357859
 O   -1.126180284123    1.706579258655   -0.656686357859
 O    0.277209715877   -0.079979741345   -0.656686357859
 H    0.911745715877    0.658583258655   -0.656686357859
RB    0.657217704609   -0.278055473284    0.464188270686
