9

 C   -2.086809138147   -0.529214650071   -0.766134084169
 H   -3.065736138147   -0.037426650071   -0.766134084169
 H   -1.979663138147   -1.169023650071    0.122137915831
 H   -1.979663138147   -1.169023650071   -1.654406084169
 C   -1.002182138147    0.516369349929   -0.766134084169
 O   -1.163286138147    1.725920349929   -0.766134084169
 O    0.240103861853   -0.060638650071   -0.766134084169
 H    0.874639861853    0.677924349929   -0.766134084169
RB    0.683446515373   -0.291727003999    0.541552982467
