9

 C   -2.123914992171   -0.509873558796   -0.875581810479
 H   -3.102841992171   -0.018085558796   -0.875581810479
 H   -2.016768992171   -1.149682558796    0.012690189521
 H   -2.016768992171   -1.149682558796   -1.763853810479
 C   -1.039287992171    0.535710441204   -0.875581810479
 O   -1.200391992171    1.745261441204   -0.875581810479
 O    0.202998007829   -0.041297558796   -0.875581810479
 H    0.837534007829    0.697265441204   -0.875581810479
RB    0.709675326137   -0.305398534715    0.618917694248
