9

 C   -3.682360861188    0.302452274728   -5.472386315494
 H   -4.661287861188    0.794240274728   -5.472386315494
 H   -3.575214861188   -0.337356725272   -4.584114315494
 H   -3.575214861188   -0.337356725272   -6.360658315494
 C   -2.597733861188    1.348036274728   -5.472386315494
 O   -2.758837861188    2.557587274728   -5.472386315494
 O   -1.355447861188    0.771028274728   -5.472386315494
 H   -0.720911861188    1.509591274728   -5.472386315494
RB    1.811285378241   -0.879602824761    3.868235589052
