9

 C   -2.235232554244   -0.451850284973   -1.203924989409
 H   -3.214159554244    0.039937715027   -1.203924989409
 H   -2.128086554244   -1.091659284973   -0.315652989409
 H   -2.128086554244   -1.091659284973   -2.092196989409
 C   -1.150605554244    0.593733715027   -1.203924989409
 O   -1.311709554244    1.803284715027   -1.203924989409
 O    0.091680445756    0.016725715027   -1.203924989409
 H    0.726216445756    0.755288715027   -1.203924989409
RB    0.788361758430   -0.346413126861    0.851011829592
