9

 C   -2.272338408268   -0.432509193699   -1.313372715719
 H   -3.251265408268    0.059278806301   -1.313372715719
 H   -2.165192408268   -1.072318193699   -0.425100715719
 H   -2.165192408268   -1.072318193699   -2.201644715719
 C   -1.187711408268    0.613074806301   -1.313372715719
 O   -1.348815408268    1.822625806301   -1.313372715719
 O    0.054574591732    0.036066806301   -1.313372715719
 H    0.689110591732    0.774629806301   -1.313372715719
RB    0.814590569195   -0.360084657576    0.928376541373
