9

 C   -2.309444262292   -0.413168102424   -1.422820442029
 H   -3.288371262292    0.078619897576   -1.422820442029
 H   -2.202298262292   -1.052977102424   -0.534548442029
 H   -2.202298262292   -1.052977102424   -2.311092442029
 C   -1.224817262292    0.632415897576   -1.422820442029
 O   -1.385921262292    1.841966897576   -1.422820442029
 O    0.017468737708    0.055407897576   -1.422820442029
 H    0.652004737708    0.793970897576   -1.422820442029
RB    0.840819379959   -0.373756188292    1.005741253154
