9

 C   -2.365103043329   -0.384156465513   -1.586992031493
 H   -3.344030043329    0.107631534487   -1.586992031493
 H   -2.257957043329   -1.023965465513   -0.698720031493
 H   -2.257957043329   -1.023965465513   -2.475264031493
 C   -1.280476043329    0.661427534487   -1.586992031493
 O   -1.441580043329    1.870978534487   -1.586992031493
 O   -0.038190043329    0.084419534487   -1.586992031493
 H    0.596345956671    0.822982534487   -1.586992031493
RB    0.880162596106   -0.394263484365    1.121788320825
