9

 C   -2.402208897353   -0.364815374238   -1.696439757803
 H   -3.381135897353    0.126972625762   -1.696439757803
 H   -2.295062897353   -1.004624374238   -0.808167757803
 H   -2.295062897353   -1.004624374238   -2.584711757803
 C   -1.317581897353    0.680768625762   -1.696439757803
 O   -1.478685897353    1.890319625762   -1.696439757803
 O   -0.075295897353    0.103760625762   -1.696439757803
 H    0.559240102647    0.842323625762   -1.696439757803
RB    0.906391406870   -0.407935015080    1.199153032606
