9

 C   -2.457867678389   -0.335803737327   -1.860611347268
 H   -3.436794678389    0.155984262673   -1.860611347268
 H   -2.350721678389   -0.975612737327   -0.972339347268
 H   -2.350721678389   -0.975612737327   -2.748883347268
 C   -1.373240678389    0.709780262673   -1.860611347268
 O   -1.534344678389    1.919331262673   -1.860611347268
 O   -0.130954678389    0.132772262673   -1.860611347268
 H    0.503581321611    0.871335262673   -1.860611347268
RB    0.945734623017   -0.428442311153    1.315200100278
