9

 C   -2.532079386438   -0.297121554778   -2.079506799888
 H   -3.511006386438    0.194666445222   -2.079506799888
 H   -2.424933386438   -0.936930554778   -1.191234799888
 H   -2.424933386438   -0.936930554778   -2.967778799888
 C   -1.447452386438    0.748462445222   -2.079506799888
 O   -1.608556386438    1.958013445222   -2.079506799888
 O   -0.205166386438    0.171454445222   -2.079506799888
 H    0.429369613562    0.910017445222   -2.079506799888
RB    0.998192244545   -0.455785372584    1.469929523840
