9

 C   -2.587738167474   -0.268109917866   -2.243678389353
 H   -3.566665167474    0.223678082134   -2.243678389353
 H   -2.480592167474   -0.907918917866   -1.355406389353
 H   -2.480592167474   -0.907918917866   -3.131950389353
 C   -1.503111167474    0.777474082134   -2.243678389353
 O   -1.664215167474    1.987025082134   -2.243678389353
 O   -0.260825167474    0.200466082134   -2.243678389353
 H    0.373710832526    0.939029082134   -2.243678389353
RB    1.037535460692   -0.476292668657    1.585976591511
