9

 C   -2.606291094486   -0.258439372229   -2.298402252508
 H   -3.585218094486    0.233348627771   -2.298402252508
 H   -2.499145094486   -0.898248372229   -1.410130252508
 H   -2.499145094486   -0.898248372229   -3.186674252508
 C   -1.521664094486    0.787144627771   -2.298402252508
 O   -1.682768094486    1.996695627771   -2.298402252508
 O   -0.279378094486    0.210136627771   -2.298402252508
 H    0.355157905514    0.948699627771   -2.298402252508
RB    1.050649866074   -0.483128434015    1.624658947402
