9

 C   -2.624844021498   -0.248768826592   -2.353126115663
 H   -3.603771021498    0.243019173408   -2.353126115663
 H   -2.517698021498   -0.888577826592   -1.464854115663
 H   -2.517698021498   -0.888577826592   -3.241398115663
 C   -1.540217021498    0.796815173408   -2.353126115663
 O   -1.701321021498    2.006366173408   -2.353126115663
 O   -0.297931021498    0.219807173408   -2.353126115663
 H    0.336604978502    0.958370173408   -2.353126115663
RB    1.063764271456   -0.489964199372    1.663341303293
