9

 C   -2.643396948510   -0.239098280955   -2.407849978817
 H   -3.622323948510    0.252689719045   -2.407849978817
 H   -2.536250948510   -0.878907280955   -1.519577978817
 H   -2.536250948510   -0.878907280955   -3.296121978817
 C   -1.558769948510    0.806485719045   -2.407849978817
 O   -1.719873948510    2.016036719045   -2.407849978817
 O   -0.316483948510    0.229477719045   -2.407849978817
 H    0.318052051490    0.968040719045   -2.407849978817
RB    1.076878676838   -0.496799964730    1.702023659183
