9

 C   -2.661949875522   -0.229427735318   -2.462573841972
 H   -3.640876875522    0.262360264682   -2.462573841972
 H   -2.554803875522   -0.869236735318   -1.574301841972
 H   -2.554803875522   -0.869236735318   -3.350845841972
 C   -1.577322875522    0.816156264682   -2.462573841972
 O   -1.738426875522    2.025707264682   -2.462573841972
 O   -0.335036875522    0.239148264682   -2.462573841972
 H    0.299499124478    0.977711264682   -2.462573841972
RB    1.089993082221   -0.503635730088    1.740706015074
