9

 C   -2.699055729546   -0.210086644043   -2.572021568282
 H   -3.677982729546    0.281701355957   -2.572021568282
 H   -2.591909729546   -0.849895644043   -1.683749568282
 H   -2.591909729546   -0.849895644043   -3.460293568282
 C   -1.614428729546    0.835497355957   -2.572021568282
 O   -1.775532729546    2.045048355957   -2.572021568282
 O   -0.372142729546    0.258489355957   -2.572021568282
 H    0.262393270454    0.997052355957   -2.572021568282
RB    1.116221892985   -0.517307260803    1.818070726855
