9

 C   -2.717608656559   -0.200416098406   -2.626745431437
 H   -3.696535656559    0.291371901594   -2.626745431437
 H   -2.610462656559   -0.840225098406   -1.738473431437
 H   -2.610462656559   -0.840225098406   -3.515017431437
 C   -1.632981656559    0.845167901594   -2.626745431437
 O   -1.794085656559    2.054718901594   -2.626745431437
 O   -0.390695656559    0.268159901594   -2.626745431437
 H    0.243840343441    1.006722901594   -2.626745431437
RB    1.129336298367   -0.524143026161    1.856753082745
