9

 C   -2.736161583571   -0.190745552769   -2.681469294592
 H   -3.715088583571    0.301042447231   -2.681469294592
 H   -2.629015583571   -0.830554552769   -1.793197294592
 H   -2.629015583571   -0.830554552769   -3.569741294592
 C   -1.651534583571    0.854838447231   -2.681469294592
 O   -1.812638583571    2.064389447231   -2.681469294592
 O   -0.409248583571    0.277830447231   -2.681469294592
 H    0.225287416429    1.016393447231   -2.681469294592
RB    1.142450703749   -0.530978791518    1.895435438636
