9

 C   -2.754714510583   -0.181075007132   -2.736193157747
 H   -3.733641510583    0.310712992868   -2.736193157747
 H   -2.647568510583   -0.820884007132   -1.847921157747
 H   -2.647568510583   -0.820884007132   -3.624465157747
 C   -1.670087510583    0.864508992868   -2.736193157747
 O   -1.831191510583    2.074059992868   -2.736193157747
 O   -0.427801510583    0.287500992868   -2.736193157747
 H    0.206734489417    1.026063992868   -2.736193157747
RB    1.155565109132   -0.537814556876    1.934117794526
