9

 C   -2.791820364607   -0.161733915857   -2.845640884057
 H   -3.770747364607    0.330054084143   -2.845640884057
 H   -2.684674364607   -0.801542915857   -1.957368884057
 H   -2.684674364607   -0.801542915857   -3.733912884057
 C   -1.707193364607    0.883850084143   -2.845640884057
 O   -1.868297364607    2.093401084143   -2.845640884057
 O   -0.464907364607    0.306842084143   -2.845640884057
 H    0.169628635393    1.045405084143   -2.845640884057
RB    1.181793919896   -0.551486087592    2.011482506307
