9

 C   -3.033008415764   -0.036016822574   -3.557051105071
 H   -4.011935415764    0.455771177426   -3.557051105071
 H   -2.925862415764   -0.675825822574   -2.668779105071
 H   -2.925862415764   -0.675825822574   -4.445323105071
 C   -1.948381415764    1.009567177426   -3.557051105071
 O   -2.109485415764    2.219118177426   -3.557051105071
 O   -0.706095415764    0.432559177426   -3.557051105071
 H   -0.071559415764    1.171122177426   -3.557051105071
RB    1.352281189864   -0.640351037242    2.514353132884
