9

 C   -3.088667196801   -0.007005185662   -3.721222694536
 H   -4.067594196801    0.484782814338   -3.721222694536
 H   -2.981521196801   -0.646814185662   -2.832950694536
 H   -2.981521196801   -0.646814185662   -4.609494694536
 C   -2.004040196801    1.038578814338   -3.721222694536
 O   -2.165144196801    2.248129814338   -3.721222694536
 O   -0.761754196801    0.461570814338   -3.721222694536
 H   -0.127218196801    1.200133814338   -3.721222694536
RB    1.391624406011   -0.660858333315    2.630400200556
