9

 C   -3.125773050825    0.012335905612   -3.830670420846
 H   -4.104700050825    0.504123905612   -3.830670420846
 H   -3.018627050825   -0.627473094388   -2.942398420846
 H   -3.018627050825   -0.627473094388   -4.718942420846
 C   -2.041146050825    1.057919905612   -3.830670420846
 O   -2.202250050825    2.267470905612   -3.830670420846
 O   -0.798860050825    0.480911905612   -3.830670420846
 H   -0.164324050825    1.219474905612   -3.830670420846
RB    1.417853216775   -0.674529864030    2.707764912337
