9

 C   -3.144325977837    0.022006451250   -3.885394284001
 H   -4.123252977837    0.513794451250   -3.885394284001
 H   -3.037179977837   -0.617802548750   -2.997122284001
 H   -3.037179977837   -0.617802548750   -4.773666284001
 C   -2.059698977837    1.067590451250   -3.885394284001
 O   -2.220802977837    2.277141451250   -3.885394284001
 O   -0.817412977837    0.490582451250   -3.885394284001
 H   -0.182876977837    1.229145451250   -3.885394284001
RB    1.430967622157   -0.681365629388    2.746447268227
