9

 C   -3.181431831861    0.041347542524   -3.994842010311
 H   -4.160358831861    0.533135542524   -3.994842010311
 H   -3.074285831861   -0.598461457476   -3.106570010311
 H   -3.074285831861   -0.598461457476   -4.883114010311
 C   -2.096804831861    1.086931542524   -3.994842010311
 O   -2.257908831861    2.296482542524   -3.994842010311
 O   -0.854518831861    0.509923542524   -3.994842010311
 H   -0.219982831861    1.248486542524   -3.994842010311
RB    1.457196432922   -0.695037160103    2.823811980008
