9

 C   -3.199984758873    0.051018088161   -4.049565873466
 H   -4.178911758873    0.542806088161   -4.049565873466
 H   -3.092838758873   -0.588790911839   -3.161293873466
 H   -3.092838758873   -0.588790911839   -4.937837873466
 C   -2.115357758873    1.096602088161   -4.049565873466
 O   -2.276461758873    2.306153088161   -4.049565873466
 O   -0.873071758873    0.519594088161   -4.049565873466
 H   -0.238535758873    1.258157088161   -4.049565873466
RB    1.470310838304   -0.701872925461    2.862494335899
