9

 C   -3.255643539910    0.080029725073   -4.213737462931
 H   -4.234570539910    0.571817725073   -4.213737462931
 H   -3.148497539910   -0.559779274927   -3.325465462931
 H   -3.148497539910   -0.559779274927   -5.102009462931
 C   -2.171016539910    1.125613725073   -4.213737462931
 O   -2.332120539910    2.335164725073   -4.213737462931
 O   -0.928730539910    0.548605725073   -4.213737462931
 H   -0.294194539910    1.287168725073   -4.213737462931
RB    1.509654054451   -0.722380221534    2.978541403570
