9

 C   -3.311302320946    0.109041361984   -4.377909052395
 H   -4.290229320946    0.600829361984   -4.377909052395
 H   -3.204156320946   -0.530767638016   -3.489637052395
 H   -3.204156320946   -0.530767638016   -5.266181052395
 C   -2.226675320946    1.154625361984   -4.377909052395
 O   -2.387779320946    2.364176361984   -4.377909052395
 O   -0.984389320946    0.577617361984   -4.377909052395
 H   -0.349853320946    1.316180361984   -4.377909052395
RB    1.548997270597   -0.742887517607    3.094588471242
