9

 C   -3.329855247958    0.118711907621   -4.432632915550
 H   -4.308782247958    0.610499907621   -4.432632915550
 H   -3.222709247958   -0.521097092379   -3.544360915550
 H   -3.222709247958   -0.521097092379   -5.320904915550
 C   -2.245228247958    1.164295907621   -4.432632915550
 O   -2.406332247958    2.373846907621   -4.432632915550
 O   -1.002942247958    0.587287907621   -4.432632915550
 H   -0.368406247958    1.325850907621   -4.432632915550
RB    1.562111675979   -0.749723282965    3.133270827132
