9

 C   -3.348408174970    0.128382453259   -4.487356778705
 H   -4.327335174970    0.620170453259   -4.487356778705
 H   -3.241262174970   -0.511426546741   -3.599084778705
 H   -3.241262174970   -0.511426546741   -5.375628778705
 C   -2.263781174970    1.173966453259   -4.487356778705
 O   -2.424885174970    2.383517453259   -4.487356778705
 O   -1.021495174970    0.596958453259   -4.487356778705
 H   -0.386959174970    1.335521453259   -4.487356778705
RB    1.575226081361   -0.756559048322    3.171953183023
