9

 C   -3.404066956006    0.157394090170   -4.651528368170
 H   -4.382993956006    0.649182090170   -4.651528368170
 H   -3.296920956006   -0.482414909830   -3.763256368170
 H   -3.296920956006   -0.482414909830   -5.539800368170
 C   -2.319439956006    1.202978090170   -4.651528368170
 O   -2.480543956006    2.412529090170   -4.651528368170
 O   -1.077153956006    0.625970090170   -4.651528368170
 H   -0.442617956006    1.364533090170   -4.651528368170
RB    1.614569297508   -0.777066344395    3.288000250695
