9

 C   -3.515384518079    0.215417363993   -4.979871547100
 H   -4.494311518079    0.707205363993   -4.979871547100
 H   -3.408238518079   -0.424391636007   -4.091599547100
 H   -3.408238518079   -0.424391636007   -5.868143547100
 C   -2.430757518079    1.261001363993   -4.979871547100
 O   -2.591861518079    2.470552363993   -4.979871547100
 O   -1.188471518079    0.683993363993   -4.979871547100
 H   -0.553935518079    1.422556363993   -4.979871547100
RB    1.693255729801   -0.818080936542    3.520094386038
