9

 C   -3.571043299115    0.244429000905   -5.144043136565
 H   -4.549970299115    0.736217000905   -5.144043136565
 H   -3.463897299115   -0.395379999095   -4.255771136565
 H   -3.463897299115   -0.395379999095   -6.032315136565
 C   -2.486416299115    1.290013000905   -5.144043136565
 O   -2.647520299115    2.499564000905   -5.144043136565
 O   -1.244130299115    0.713005000905   -5.144043136565
 H   -0.609594299115    1.451568000905   -5.144043136565
RB    1.732598945948   -0.838588232615    3.636141453709
