9

 C   -3.589596226127    0.254099546542   -5.198766999720
 H   -4.568523226127    0.745887546542   -5.198766999720
 H   -3.482450226127   -0.385709453458   -4.310494999720
 H   -3.482450226127   -0.385709453458   -6.087038999720
 C   -2.504969226127    1.299683546542   -5.198766999720
 O   -2.666073226127    2.509234546542   -5.198766999720
 O   -1.262683226127    0.722675546542   -5.198766999720
 H   -0.628147226127    1.461238546542   -5.198766999720
RB    1.745713351330   -0.845423997972    3.674823809600
