14

 N    1.748378308036    1.132851749351    0.291315647729
 C    0.662931365133    1.955610719179    0.294457518950
 H    0.854452205015    3.030667691678    0.291952920408
 C    1.666514587354   -0.286418712375    0.292333316613
 O    2.710257834672   -0.939660602436    0.289852475301
 N    0.392676498673   -0.828558343968    0.302946550743
 C   -0.665009614140   -0.027206313093    0.300453505915
 N   -1.897002730596   -0.631005342173    0.255047682706
 H   -1.905937198917   -1.630699228684    0.424618291271
 H   -2.715580474799   -0.104577022773    0.529947807503
 C   -0.596427615706    1.414170526102    0.296970072249
 H   -1.484951331391    2.045488117346    0.287488118222
 H    2.692318430963    1.507499961793    0.288009751501
NA   -2.479546350661   -0.955008729206   -1.416976460635
