14

 N    2.203568160115    1.386022582806    1.597807378586
 C    1.118121217212    2.208781552634    1.600949249807
 H    1.309642057094    3.283838525133    1.598444651265
 C    2.121704439433   -0.033247878920    1.598825047470
 O    3.165447686751   -0.686489768981    1.596344206158
 N    0.847866350752   -0.575387510513    1.609438281600
 C   -0.209819762061    0.225964520362    1.606945236772
 N   -1.441812878517   -0.377834508718    1.561539413563
 H   -1.450747346838   -1.377528395229    1.731110022128
 H   -2.260390622720    0.148593810682    1.836439538360
 C   -0.141237763627    1.667341359557    1.603461803106
 H   -1.029761479312    2.298658950801    1.593979849079
 H    3.147508283042    1.760670795248    1.594501482358
NA   -4.678166323325   -2.177853325564   -7.727483604994
