14

 N    1.765031595308    1.142114096916    0.339114125687
 C    0.679584652405    1.964873066744    0.342255996908
 H    0.871105492287    3.039930039243    0.339751398366
 C    1.683167874626   -0.277156364810    0.340131794571
 O    2.726911121944   -0.930398254871    0.337650953259
 N    0.409329785945   -0.819295996403    0.350745028701
 C   -0.648356326868   -0.017943965528    0.348251983873
 N   -1.880349443324   -0.621742994608    0.302846160664
 H   -1.889283911645   -1.621436881119    0.472416769229
 H   -2.698927187527   -0.095314675208    0.577746285461
 C   -0.579774328434    1.423432873667    0.344768550207
 H   -1.468298044119    2.054750464911    0.335286596180
 H    2.708971718235    1.516762309358    0.335808229459
NA   -2.559983666734   -0.999746946146   -1.647848673233
