14

 N    1.776133786822    1.148288995293    0.370979777659
 C    0.690686843919    1.971047965121    0.374121648880
 H    0.882207683801    3.046104937620    0.371617050338
 C    1.694270066140   -0.270981466433    0.371997446543
 O    2.738013313458   -0.924223356494    0.369516605231
 N    0.420431977459   -0.813121098026    0.382610680673
 C   -0.637254135354   -0.011769067151    0.380117635845
 N   -1.869247251810   -0.615568096231    0.334711812636
 H   -1.878181720131   -1.615261982742    0.504282421201
 H   -2.687824996013   -0.089139776831    0.609611937433
 C   -0.568672136920    1.429607772044    0.376634202179
 H   -1.457195852605    2.060925363288    0.367152248152
 H    2.720073909749    1.522937207735    0.367673881431
NA   -2.613608544116   -1.029572424106   -1.801763481632
