14

 N    1.792787074093    1.157551342858    0.418778255617
 C    0.707340131190    1.980310312686    0.421920126838
 H    0.898860971072    3.055367285185    0.419415528296
 C    1.710923353411   -0.261719118868    0.419795924501
 O    2.754666600729   -0.914961008929    0.417315083189
 N    0.437085264730   -0.803858750461    0.430409158631
 C   -0.620600848083   -0.002506719586    0.427916113803
 N   -1.852593964539   -0.606305748666    0.382510290594
 H   -1.861528432860   -1.605999635177    0.552080899159
 H   -2.671171708742   -0.079877429266    0.657410415391
 C   -0.552018849649    1.438870119609    0.424432680137
 H   -1.440542565334    2.070187710853    0.414950726110
 H    2.736727197020    1.532199555300    0.415472359389
NA   -2.694045860189   -1.074310641045   -2.032635694231
