14

 N    1.798338169850    1.160638792047    0.434711081603
 C    0.712891226947    1.983397761875    0.437852952824
 H    0.904412066829    3.058454734374    0.435348354282
 C    1.716474449168   -0.258631669679    0.435728750487
 O    2.760217696486   -0.911873559740    0.433247909175
 N    0.442636360487   -0.800771301272    0.446341984617
 C   -0.615049752326    0.000580729603    0.443848939789
 N   -1.847042868782   -0.603218299477    0.398443116580
 H   -1.855977337103   -1.602912185988    0.568013725145
 H   -2.665620612985   -0.076789980077    0.673343241377
 C   -0.546467753892    1.441957568798    0.440365506123
 H   -1.434991469577    2.073275160042    0.430883552096
 H    2.742278292777    1.535287004489    0.431405185375
NA   -2.720858298880   -1.089223380025   -2.109593098430
