14

 N    1.803889265607    1.163726241235    0.450643907589
 C    0.718442322704    1.986485211063    0.453785778810
 H    0.909963162586    3.061542183562    0.451281180268
 C    1.722025544925   -0.255544220491    0.451661576473
 O    2.765768792243   -0.908786110552    0.449180735161
 N    0.448187456244   -0.797683852084    0.462274810603
 C   -0.609498656569    0.003668178791    0.459781765775
 N   -1.841491773025   -0.600130850289    0.414375942566
 H   -1.850426241346   -1.599824736800    0.583946551131
 H   -2.660069517228   -0.073702530889    0.689276067363
 C   -0.540916658135    1.445045017986    0.456298332109
 H   -1.429440373820    2.076362609230    0.446816378082
 H    2.747829388534    1.538374453677    0.447338011361
NA   -2.747670737571   -1.104136119005   -2.186550502630
