14

 N    1.809440361364    1.166813690424    0.466576733575
 C    0.723993418461    1.989572660252    0.469718604796
 H    0.915514258343    3.064629632751    0.467214006254
 C    1.727576640682   -0.252456771302    0.467594402459
 O    2.771319888000   -0.905698661363    0.465113561147
 N    0.453738552001   -0.794596402895    0.478207636589
 C   -0.603947560812    0.006755627980    0.475714591761
 N   -1.835940677268   -0.597043401100    0.430308768552
 H   -1.844875145589   -1.596737287611    0.599879377117
 H   -2.654518421471   -0.070615081700    0.705208893349
 C   -0.535365562378    1.448132467175    0.472231158095
 H   -1.423889278063    2.079450058419    0.462749204068
 H    2.753380484291    1.541461902866    0.463270837347
NA   -2.774483176262   -1.119048857985   -2.263507906829
