14

 N    1.820542552878    1.172988588801    0.498442385547
 C    0.735095609975    1.995747558629    0.501584256768
 H    0.926616449857    3.070804531128    0.499079658226
 C    1.738678832196   -0.246281872925    0.499460054431
 O    2.782422079514   -0.899523762986    0.496979213119
 N    0.464840743515   -0.788421504518    0.510073288561
 C   -0.592845369298    0.012930526357    0.507580243733
 N   -1.824838485754   -0.590868502723    0.462174420524
 H   -1.833772954075   -1.590562389234    0.631745029089
 H   -2.643416229957   -0.064440183323    0.737074545321
 C   -0.524263370864    1.454307365552    0.504096810067
 H   -1.412787086549    2.085624956796    0.494614856040
 H    2.764482675805    1.547636801243    0.495136489319
NA   -2.828108053644   -1.148874335945   -2.417422715228
