14

 N    1.826093648635    1.176076037989    0.514375211534
 C    0.740646705732    1.998835007817    0.517517082755
 H    0.932167545614    3.073891980316    0.515012484213
 C    1.744229927953   -0.243194423737    0.515392880418
 O    2.787973175271   -0.896436313798    0.512912039106
 N    0.470391839272   -0.785334055330    0.526006114548
 C   -0.587294273541    0.016017975545    0.523513069720
 N   -1.819287389997   -0.587781053535    0.478107246511
 H   -1.828221858318   -1.587474940046    0.647677855076
 H   -2.637865134200   -0.061352734135    0.753007371308
 C   -0.518712275107    1.457394814740    0.520029636054
 H   -1.407235990792    2.088712405984    0.510547682027
 H    2.770033771562    1.550724250431    0.511069315306
NA   -2.854920492335   -1.163787074925   -2.494380119428
