14

 N    1.864951318935    1.197688182309    0.625904993436
 C    0.779504376032    2.020447152137    0.629046864657
 H    0.971025215914    3.095504124636    0.626542266115
 C    1.783087598253   -0.221582279417    0.626922662320
 O    2.826830845571   -0.874824169478    0.624441821008
 N    0.509249509572   -0.763721911010    0.637535896450
 C   -0.548436603241    0.037630119865    0.635042851622
 N   -1.780429719697   -0.566168909215    0.589637028413
 H   -1.789364188018   -1.565862795726    0.759207636978
 H   -2.599007463900   -0.039740589815    0.864537153210
 C   -0.479854604807    1.479006959060    0.631559417956
 H   -1.368378320492    2.110324550304    0.622077463929
 H    2.808891441862    1.572336394751    0.622599097208
NA   -3.042607563173   -1.268176247785   -3.033081948824
