14

 N    1.903808989234    1.219300326628    0.737434775338
 C    0.818362046331    2.042059296456    0.740576646559
 H    1.009882886213    3.117116268955    0.738072048017
 C    1.821945268552   -0.199970135098    0.738452444222
 O    2.865688515870   -0.853212025159    0.735971602910
 N    0.548107179871   -0.742109766691    0.749065678352
 C   -0.509578932942    0.059242264184    0.746572633524
 N   -1.741572049398   -0.544556764896    0.701166810315
 H   -1.750506517719   -1.544250651407    0.870737418880
 H   -2.560149793601   -0.018128445496    0.976066935112
 C   -0.440996934508    1.500619103379    0.743089199858
 H   -1.329520650193    2.131936694623    0.733607245831
 H    2.847749112161    1.593948539070    0.734128879110
NA   -3.230294634010   -1.372565420645   -3.571783778221
