14

 N    1.926013372262    1.231650123382    0.801166079283
 C    0.840566429359    2.054409093210    0.804307950504
 H    1.032087269241    3.129466065709    0.801803351962
 C    1.844149651580   -0.187620338344    0.802183748167
 O    2.887892898898   -0.840862228405    0.799702906855
 N    0.570311562899   -0.729759969937    0.812796982297
 C   -0.487374549914    0.071592060938    0.810303937469
 N   -1.719367666370   -0.532206968142    0.764898114260
 H   -1.728302134691   -1.531900854653    0.934468722825
 H   -2.537945410573   -0.005778648742    1.039798239057
 C   -0.418792551480    1.512968900133    0.806820503803
 H   -1.307316267165    2.144286491377    0.797338549776
 H    2.869953495189    1.606298335824    0.797860183055
NA   -3.337544388774   -1.432216376565   -3.879613395019
