14

 N    1.937115563776    1.237825021759    0.833031731255
 C    0.851668620873    2.060583991587    0.836173602476
 H    1.043189460755    3.135640964086    0.833669003934
 C    1.855251843094   -0.181445439967    0.834049400139
 O    2.898995090412   -0.834687330028    0.831568558827
 N    0.581413754413   -0.723585071560    0.844662634269
 C   -0.476272358400    0.077766959315    0.842169589441
 N   -1.708265474856   -0.526032069765    0.796763766232
 H   -1.717199943177   -1.525725956276    0.966334374797
 H   -2.526843219059    0.000396249635    1.071663891029
 C   -0.407690359966    1.519143798510    0.838686155775
 H   -1.296214075651    2.150461389754    0.829204201748
 H    2.881055686703    1.612473234201    0.829725835027
NA   -3.391169266156   -1.462041854525   -4.033528203418
