14

 N    1.942666659533    1.240912470947    0.848964557241
 C    0.857219716630    2.063671440775    0.852106428462
 H    1.048740556512    3.138728413274    0.849601829920
 C    1.860802938851   -0.178357990779    0.849982226125
 O    2.904546186169   -0.831599880840    0.847501384813
 N    0.586964850170   -0.720497622372    0.860595460255
 C   -0.470721262643    0.080854408503    0.858102415427
 N   -1.702714379099   -0.522944620577    0.812696592218
 H   -1.711648847420   -1.522638507088    0.982267200783
 H   -2.521292123302    0.003483698823    1.087596717015
 C   -0.402139264209    1.522231247698    0.854618981761
 H   -1.290662979894    2.153548838942    0.845137027734
 H    2.886606782460    1.615560683389    0.845658661013
NA   -3.417981704847   -1.476954593505   -4.110485607617
