14

 N    1.948217755291    1.243999920136    0.864897383227
 C    0.862770812388    2.066758889964    0.868039254448
 H    1.054291652270    3.141815862463    0.865534655906
 C    1.866354034609   -0.175270541590    0.865915052111
 O    2.910097281927   -0.828512431651    0.863434210799
 N    0.592515945928   -0.717410173183    0.876528286241
 C   -0.465170166885    0.083941857692    0.874035241413
 N   -1.697163283341   -0.519857171388    0.828629418204
 H   -1.706097751662   -1.519551057899    0.998200026769
 H   -2.515741027544    0.006571148012    1.103529543001
 C   -0.396588168451    1.525318696887    0.870551807747
 H   -1.285111884136    2.156636288131    0.861069853720
 H    2.892157878218    1.618648132578    0.861591486999
NA   -3.444794143538   -1.491867332485   -4.187443011817
