14

 N    1.953768851048    1.247087369324    0.880830209213
 C    0.868321908145    2.069846339152    0.883972080434
 H    1.059842748027    3.144903311651    0.881467481892
 C    1.871905130366   -0.172183092402    0.881847878097
 O    2.915648377684   -0.825424982463    0.879367036785
 N    0.598067041685   -0.714322723995    0.892461112227
 C   -0.459619071128    0.087029306880    0.889968067399
 N   -1.691612187584   -0.516769722200    0.844562244190
 H   -1.700546655905   -1.516463608711    1.014132852755
 H   -2.510189931787    0.009658597200    1.119462368987
 C   -0.391037072694    1.528406146075    0.886484633733
 H   -1.279560788379    2.159723737319    0.877002679706
 H    2.897708973975    1.621735581766    0.877524312985
NA   -3.471606582229   -1.506780071465   -4.264400416016
