14

 N    1.959319946805    1.250174818513    0.896763035199
 C    0.873873003902    2.072933788341    0.899904906420
 H    1.065393843784    3.147990760840    0.897400307878
 C    1.877456226123   -0.169095643213    0.897780704083
 O    2.921199473441   -0.822337533274    0.895299862771
 N    0.603618137442   -0.711235274806    0.908393938213
 C   -0.454067975371    0.090116756069    0.905900893385
 N   -1.686061091827   -0.513682273011    0.860495070176
 H   -1.694995560148   -1.513376159522    1.030065678741
 H   -2.504638836030    0.012746046389    1.135395194973
 C   -0.385485976937    1.531493595264    0.902417459719
 H   -1.274009692622    2.162811186508    0.892935505692
 H    2.903260069732    1.624823030955    0.893457138971
NA   -3.498419020920   -1.521692810445   -4.341357820216
