14

 N    1.964871042562    1.253262267701    0.912695861185
 C    0.879424099659    2.076021237529    0.915837732406
 H    1.070944939541    3.151078210028    0.913333133864
 C    1.883007321880   -0.166008194025    0.913713530069
 O    2.926750569198   -0.819250084086    0.911232688757
 N    0.609169233199   -0.708147825618    0.924326764199
 C   -0.448516879614    0.093204205257    0.921833719371
 N   -1.680509996070   -0.510594823823    0.876427896162
 H   -1.689444464391   -1.510288710334    1.045998504727
 H   -2.499087740273    0.015833495577    1.151328020959
 C   -0.379934881180    1.534581044452    0.918350285705
 H   -1.268458596865    2.165898635696    0.908868331678
 H    2.908811165489    1.627910480143    0.909389964957
NA   -3.525231459611   -1.536605549425   -4.418315224415
