14

 N    1.992626521347    1.268699513644    0.992359991115
 C    0.907179578444    2.091458483472    0.995501862336
 H    1.098700418326    3.166515455971    0.992997263794
 C    1.910762800665   -0.150570948082    0.993377659999
 O    2.954506047983   -0.803812838143    0.990896818687
 N    0.636924711984   -0.692710579675    1.003990894129
 C   -0.420761400829    0.108641451200    1.001497849301
 N   -1.652754517285   -0.495157577880    0.956092026092
 H   -1.661688985606   -1.494851464391    1.125662634657
 H   -2.471332261488    0.031270741520    1.230992150889
 C   -0.352179402395    1.550018290395    0.998014415635
 H   -1.240703118080    2.181335881639    0.988532461608
 H    2.936566644274    1.643347726086    0.989054094887
NA   -3.659293653066   -1.611169244325   -4.803102245413
