14

 N    2.014830904375    1.281049310398    1.056091295060
 C    0.929383961472    2.103808280226    1.059233166281
 H    1.120904801354    3.178865252725    1.056728567739
 C    1.932967183693   -0.138221151328    1.057108963944
 O    2.976710431011   -0.791463041389    1.054628122632
 N    0.659129095012   -0.680360782921    1.067722198074
 C   -0.398557017801    0.120991247954    1.065229153246
 N   -1.630550134257   -0.482807781126    1.019823330037
 H   -1.639484602578   -1.482501667637    1.189393938602
 H   -2.449127878460    0.043620538274    1.294723454834
 C   -0.329975019367    1.562368087149    1.061745719580
 H   -1.218498735052    2.193685678393    1.052263765553
 H    2.958771027302    1.655697522840    1.052785398832
NA   -3.766543407830   -1.670820200244   -5.110931862211
