14

 N    2.020382000132    1.284136759586    1.072024121046
 C    0.934935057229    2.106895729414    1.075165992267
 H    1.126455897111    3.181952701913    1.072661393725
 C    1.938518279450   -0.135133702140    1.073041789930
 O    2.982261526768   -0.788375592201    1.070560948618
 N    0.664680190769   -0.677273333733    1.083655024060
 C   -0.393005922044    0.124078697142    1.081161979232
 N   -1.624999038500   -0.479720331938    1.035756156023
 H   -1.633933506821   -1.479414218449    1.205326764588
 H   -2.443576782703    0.046707987462    1.310656280820
 C   -0.324423923610    1.565455536337    1.077678545566
 H   -1.212947639295    2.196773127581    1.068196591539
 H    2.964322123059    1.658784972028    1.068718224818
NA   -3.793355846521   -1.685732939224   -5.187889266410
