14

 N    2.031484191646    1.290311657963    1.103889773018
 C    0.946037248743    2.113070627791    1.107031644239
 H    1.137558088625    3.188127600290    1.104527045697
 C    1.949620470964   -0.128958803763    1.104907441902
 O    2.993363718282   -0.782200693824    1.102426600590
 N    0.675782382283   -0.671098435356    1.115520676032
 C   -0.381903730530    0.130253595519    1.113027631204
 N   -1.613896846986   -0.473545433561    1.067621807995
 H   -1.622831315307   -1.473239320072    1.237192416560
 H   -2.432474591189    0.052882885839    1.342521932792
 C   -0.313321732096    1.571630434714    1.109544197538
 H   -1.201845447781    2.202948025958    1.100062243511
 H    2.975424314573    1.664959870405    1.100583876790
NA   -3.846980723903   -1.715558417184   -5.341804074810
