14

 N    2.037035287403    1.293399107152    1.119822599004
 C    0.951588344500    2.116158076980    1.122964470225
 H    1.143109184382    3.191215049479    1.120459871683
 C    1.955171566721   -0.125871354574    1.120840267888
 O    2.998914814039   -0.779113244635    1.118359426576
 N    0.681333478040   -0.668010986167    1.131453502018
 C   -0.376352634773    0.133341044708    1.128960457190
 N   -1.608345751229   -0.470457984372    1.083554633981
 H   -1.617280219550   -1.470151870883    1.253125242546
 H   -2.426923495432    0.055970335028    1.358454758778
 C   -0.307770636339    1.574717883903    1.125477023524
 H   -1.196294352024    2.206035475147    1.115995069497
 H    2.980975410330    1.668047319594    1.116516702776
NA   -3.873793162594   -1.730471156164   -5.418761479009
