14

 N    2.053688574675    1.302661454717    1.167621076962
 C    0.968241631772    2.125420424545    1.170762948183
 H    1.159762471654    3.200477397044    1.168258349641
 C    1.971824853993   -0.116609007009    1.168638745846
 O    3.015568101311   -0.769850897070    1.166157904534
 N    0.697986765312   -0.658748638602    1.179251979976
 C   -0.359699347501    0.142603392273    1.176758935148
 N   -1.591692463957   -0.461195636807    1.131353111939
 H   -1.600626932278   -1.460889523318    1.300923720504
 H   -2.410270208160    0.065232682593    1.406253236736
 C   -0.291117349067    1.583980231468    1.173275501482
 H   -1.179641064752    2.215297822712    1.163793547455
 H    2.997628697602    1.677309667159    1.164315180734
NA   -3.954230478668   -1.775209373104   -5.649633691608
