14

 N    2.059239670432    1.305748903906    1.183553902948
 C    0.973792727529    2.128507873734    1.186695774169
 H    1.165313567411    3.203564846233    1.184191175627
 C    1.977375949750   -0.113521557820    1.184571571832
 O    3.021119197068   -0.766763447881    1.182090730520
 N    0.703537861069   -0.655661189413    1.195184805962
 C   -0.354148251744    0.145690841462    1.192691761134
 N   -1.586141368200   -0.458108187618    1.147285937925
 H   -1.595075836521   -1.457802074129    1.316856546490
 H   -2.404719112403    0.068320131782    1.422186062722
 C   -0.285566253310    1.587067680657    1.189208327468
 H   -1.174089968995    2.218385271901    1.179726373441
 H    3.003179793359    1.680397116348    1.180248006720
NA   -3.981042917359   -1.790122112084   -5.726591095807
