14

 N    2.070341861946    1.311923802283    1.215419554920
 C    0.984894919043    2.134682772111    1.218561426141
 H    1.176415758925    3.209739744610    1.216056827599
 C    1.988478141264   -0.107346659443    1.216437223804
 O    3.032221388582   -0.760588549504    1.213956382492
 N    0.714640052583   -0.649486291036    1.227050457934
 C   -0.343046060230    0.151865739839    1.224557413106
 N   -1.575039176686   -0.451933289241    1.179151589897
 H   -1.583973645007   -1.451627175752    1.348722198462
 H   -2.393616920889    0.074495030159    1.454051714694
 C   -0.274464061796    1.593242579034    1.221073979440
 H   -1.162987777481    2.224560170278    1.211592025413
 H    3.014281984873    1.686572014725    1.212113658692
NA   -4.034667794741   -1.819947590044   -5.880505904206
