14

 N    2.075892957703    1.315011251471    1.231352380906
 C    0.990446014800    2.137770221299    1.234494252127
 H    1.181966854682    3.212827193798    1.231989653585
 C    1.994029237021   -0.104259210255    1.232370049790
 O    3.037772484339   -0.757501100316    1.229889208478
 N    0.720191148340   -0.646398841848    1.242983283920
 C   -0.337494964473    0.154953189027    1.240490239092
 N   -1.569488080929   -0.448845840053    1.195084415883
 H   -1.578422549250   -1.448539726564    1.364655024448
 H   -2.388065825132    0.077582479347    1.469984540680
 C   -0.268912966039    1.596330028222    1.237006805426
 H   -1.157436681724    2.227647619466    1.227524851399
 H    3.019833080630    1.689659463913    1.228046484678
NA   -4.061480233432   -1.834860329024   -5.957463308406
