14

 N    2.086995149217    1.321186149848    1.263218032878
 C    1.001548206314    2.143945119676    1.266359904099
 H    1.193069046196    3.219002092175    1.263855305557
 C    2.005131428535   -0.098084311878    1.264235701762
 O    3.048874675853   -0.751326201939    1.261754860450
 N    0.731293339854   -0.640223943471    1.274848935892
 C   -0.326392772959    0.161128087404    1.272355891064
 N   -1.558385889415   -0.442670941676    1.226950067855
 H   -1.567320357736   -1.442364828187    1.396520676420
 H   -2.376963633618    0.083757377724    1.501850192652
 C   -0.257810774525    1.602504926599    1.268872457398
 H   -1.146334490210    2.233822517843    1.259390503371
 H    3.030935272144    1.695834362290    1.259912136650
NA   -4.115105110814   -1.864685806984   -6.111378116805
