14

 N    2.103648436488    1.330448497413    1.311016510836
 C    1.018201493585    2.153207467241    1.314158382057
 H    1.209722333467    3.228264439740    1.311653783515
 C    2.021784715806   -0.088821964313    1.312034179720
 O    3.065527963124   -0.742063854374    1.309553338408
 N    0.747946627125   -0.630961595906    1.322647413850
 C   -0.309739485688    0.170390434969    1.320154369022
 N   -1.541732602144   -0.433408594111    1.274748545813
 H   -1.550667070465   -1.433102480622    1.444319154378
 H   -2.360310346347    0.093019725289    1.549648670610
 C   -0.241157487254    1.611767274164    1.316670935356
 H   -1.129681202939    2.243084865408    1.307188981329
 H    3.047588559415    1.705096709855    1.307710614608
NA   -4.195542426887   -1.909424023924   -6.342250329403
