14

 N    2.114750628002    1.336623395790    1.342882162809
 C    1.029303685099    2.159382365618    1.346024034030
 H    1.220824524981    3.234439338117    1.343519435488
 C    2.032886907320   -0.082647065936    1.343899831693
 O    3.076630154638   -0.735888955997    1.341418990381
 N    0.759048818639   -0.624786697529    1.354513065823
 C   -0.298637294174    0.176565333346    1.352020020995
 N   -1.530630410630   -0.427233695734    1.306614197786
 H   -1.539564878951   -1.426927582245    1.476184806351
 H   -2.349208154833    0.099194623666    1.581514322583
 C   -0.230055295740    1.617942172541    1.348536587329
 H   -1.118579011425    2.249259763785    1.339054633302
 H    3.058690750929    1.711271608232    1.339576266581
NA   -4.249167304269   -1.939249501884   -6.496165137802
