14

 N    2.120301723759    1.339710844979    1.358814988795
 C    1.034854780856    2.162469814807    1.361956860016
 H    1.226375620738    3.237526787306    1.359452261474
 C    2.038438003077   -0.079559616747    1.359832657679
 O    3.082181250395   -0.732801506808    1.357351816367
 N    0.764599914396   -0.621699248340    1.370445891809
 C   -0.293086198417    0.179652782535    1.367952846981
 N   -1.525079314873   -0.424146246545    1.322547023772
 H   -1.534013783194   -1.423840133056    1.492117632337
 H   -2.343657059076    0.102282072855    1.597447148569
 C   -0.224504199983    1.621029621730    1.364469413315
 H   -1.113027915668    2.252347212974    1.354987459288
 H    3.064241846686    1.714359057421    1.355509092567
NA   -4.275979742960   -1.954162240864   -6.573122542002
