14

 N    2.148057202545    1.355148090921    1.438479118725
 C    1.062610259642    2.177907060749    1.441620989946
 H    1.254131099524    3.252964033248    1.439116391404
 C    2.066193481863   -0.064122370805    1.439496787609
 O    3.109936729181   -0.717364260866    1.437015946297
 N    0.792355393182   -0.606262002398    1.450110021739
 C   -0.265330719631    0.195090028477    1.447616976911
 N   -1.497323836087   -0.408709000603    1.402211153702
 H   -1.506258304408   -1.408402887114    1.571781762267
 H   -2.315901580290    0.117719318797    1.677111278499
 C   -0.196748721197    1.636466867672    1.444133543245
 H   -1.085272436882    2.267784458916    1.434651589218
 H    3.091997325472    1.729796303363    1.435173222497
NA   -4.410041936415   -2.028725935764   -6.957909562999
