14

 N    2.170261585573    1.367497887675    1.502210422669
 C    1.084814642670    2.190256857503    1.505352293890
 H    1.276335482552    3.265313830002    1.502847695348
 C    2.088397864891   -0.051772574051    1.503228091553
 O    3.132141112209   -0.705014464112    1.500747250241
 N    0.814559776210   -0.593912205644    1.513841325683
 C   -0.243126336603    0.207439825231    1.511348280855
 N   -1.475119453059   -0.396359203849    1.465942457646
 H   -1.484053921380   -1.396053090360    1.635513066211
 H   -2.293697197262    0.130069115551    1.740842582443
 C   -0.174544338169    1.648816664426    1.507864847189
 H   -1.063068053854    2.280134255670    1.498382893162
 H    3.114201708500    1.742146100117    1.498904526441
NA   -4.517291691179   -2.088376891684   -7.265739179797
