14

 N    2.186914872844    1.376760235241    1.550008900627
 C    1.101467929941    2.199519205069    1.553150771848
 H    1.292988769823    3.274576177568    1.550646173306
 C    2.105051152162   -0.042510226485    1.551026569511
 O    3.148794399480   -0.695752116546    1.548545728199
 N    0.831213063481   -0.584649858078    1.561639803641
 C   -0.226473049332    0.216702172797    1.559146758813
 N   -1.458466165788   -0.387096856283    1.513740935604
 H   -1.467400634109   -1.386790742794    1.683311544169
 H   -2.277043909991    0.139331463117    1.788641060401
 C   -0.157891050898    1.658079011992    1.555663325147
 H   -1.046414766583    2.289396603236    1.546181371120
 H    3.130854995771    1.751408447683    1.546703004399
NA   -4.597729007252   -2.133115108624   -7.496611392396
