12

 H   -0.399068658711    2.808048699418    3.157397681621
 H   -0.256028658711    1.241938699418    3.992097681621
 H   -1.806968658711    1.722708699418    3.256667681621
 C   -0.714438658711    1.754948699418    3.134237681621
 S   -0.226138658711    0.964588699418    1.558997681621
 K    0.028991341289   -1.844831300582    0.788297681621
 K    0.039831341289    1.551268699418   -1.262762318379
 S    0.169077968443   -0.721198684655   -1.165623167325
 C    0.657378062901   -1.511556263472   -2.740859904916
 H    0.341994316840   -2.564650021787   -2.764029527677
 H    0.198991429749   -0.998533914979   -3.598717636125
 H    1.749908450891   -1.479330932485   -2.863280920111
