12

 H   -0.405761821200    2.836598229241    3.203540300150
 H   -0.262721821200    1.270488229241    4.038240300150
 H   -1.813661821200    1.751258229241    3.302810300150
 C   -0.721131821200    1.783498229241    3.180380300150
 S   -0.232831821200    0.993138229241    1.605140300150
 K    0.022298178800   -1.816281770759    0.834440300150
 K    0.033138178800    1.579818229241   -1.216619699850
 S    0.186869647255   -0.797088679208   -1.288278884967
 C    0.675169741712   -1.587446258026   -2.863515622559
 H    0.359785995651   -2.640540016340   -2.886685245319
 H    0.216783108560   -1.074423909533   -3.721373353768
 H    1.767700129702   -1.555220927039   -2.985936637754
