12

 H   -0.412454983689    2.865147759065    3.249682918679
 H   -0.269414983689    1.299037759065    4.084382918679
 H   -1.820354983689    1.779807759065    3.348952918679
 C   -0.727824983689    1.812047759065    3.226522918679
 S   -0.239524983689    1.021687759065    1.651282918679
 K    0.015605016311   -1.787732240935    0.880582918679
 K    0.026445016311    1.608367759065   -1.170477081321
 S    0.204661326066   -0.872978673762   -1.410934602610
 C    0.692961420524   -1.663336252579   -2.986171340202
 H    0.377577674463   -2.716430010894   -3.009340962962
 H    0.234574787372   -1.150313904086   -3.844029071411
 H    1.785491808514   -1.631110921592   -3.108592355397
