12

 H   -0.429187889912    2.936521583623    3.365039465002
 H   -0.286147889912    1.370411583623    4.199739465002
 H   -1.837087889912    1.851181583623    3.464309465002
 C   -0.744557889912    1.883421583623    3.341879465002
 S   -0.256257889912    1.093061583623    1.766639465002
 K   -0.001127889912   -1.716358416377    0.995939465002
 K    0.009712110088    1.679741583623   -1.055120534998
 S    0.249140523095   -1.062703660146   -1.717573896718
 C    0.737440617553   -1.853061238963   -3.292810634310
 H    0.422056871492   -2.906154997278   -3.315980257070
 H    0.279053984401   -1.340038890470   -4.150668365518
 H    1.829971005543   -1.820835907976   -3.415231649504
