12

 H   -0.442574214890    2.993620643270    3.457324702060
 H   -0.299534214890    1.427510643270    4.292024702060
 H   -1.850474214890    1.908280643270    3.556594702060
 C   -0.757944214890    1.940520643270    3.434164702060
 S   -0.269644214890    1.150160643270    1.858924702060
 K   -0.014514214890   -1.659259356730    1.088224702060
 K   -0.003674214890    1.736840643270   -0.962835297940
 S    0.284723880719   -1.214483649253   -1.962885332004
 C    0.773023975177   -2.004841228070   -3.538122069595
 H    0.457640229115   -3.057934986385   -3.561291692356
 H    0.314637342025   -1.491818879577   -4.395979800804
 H    1.865554363166   -1.972615897083   -3.660543084790
