12

 H   -0.452613958624    3.036444938005    3.526538629853
 H   -0.309573958624    1.470334938005    4.361238629853
 H   -1.860513958624    1.951104938005    3.625808629853
 C   -0.767983958624    1.983344938005    3.503378629853
 S   -0.279683958624    1.192984938005    1.928138629853
 K   -0.024553958624   -1.616435061995    1.157438629853
 K   -0.013713958624    1.779664938005   -0.893621370147
 S    0.311411398936   -1.328318641083   -2.146868908468
 C    0.799711493394   -2.118676219900   -3.722105646060
 H    0.484327747333   -3.171769978215   -3.745275268820
 H    0.341324860242   -1.605653871407   -4.579963377269
 H    1.892241881384   -2.086450888913   -3.844526661255
