12

 H   -0.455960539868    3.050719702916    3.549609939118
 H   -0.312920539868    1.484609702916    4.384309939118
 H   -1.863860539868    1.965379702916    3.648879939118
 C   -0.771330539868    1.997619702916    3.526449939118
 S   -0.283030539868    1.207259702916    1.951209939118
 K   -0.027900539868   -1.602160297084    1.180509939118
 K   -0.017060539868    1.793939702916   -0.870550060882
 S    0.320307238342   -1.366263638360   -2.208196767290
 C    0.808607332800   -2.156621217177   -3.783433504881
 H    0.493223586739   -3.209714975492   -3.806603127642
 H    0.350220699648   -1.643598868684   -4.641291236090
 H    1.901137720790   -2.124395886190   -3.905854520076
