12

 H   -0.466000283602    3.093543997651    3.618823866911
 H   -0.322960283602    1.527433997651    4.453523866911
 H   -1.873900283602    2.008203997651    3.718093866911
 C   -0.781370283602    2.040443997651    3.595663866911
 S   -0.293070283602    1.250083997651    2.020423866911
 K   -0.037940283602   -1.559336002349    1.249723866911
 K   -0.027100283602    1.836763997651   -0.801336133089
 S    0.346994756560   -1.480098630190   -2.392180343754
 C    0.835294851017   -2.270456209007   -3.967417081346
 H    0.519911104956   -3.323549967322   -3.990586704106
 H    0.376908217865   -1.757433860514   -4.825274812554
 H    1.927825239007   -2.238230878020   -4.089838096541
