12

 H   -0.476040027335    3.136368292386    3.688037794705
 H   -0.333000027335    1.570258292386    4.522737794705
 H   -1.883940027335    2.051028292386    3.787307794705
 C   -0.791410027335    2.083268292386    3.664877794705
 S   -0.303110027335    1.292908292386    2.089637794705
 K   -0.047980027335   -1.516511707614    1.318937794705
 K   -0.037140027335    1.879588292386   -0.732122205295
 S    0.373682274777   -1.593933622020   -2.576163920219
 C    0.861982369235   -2.384291200837   -4.151400657810
 H    0.546598623174   -3.437384959152   -4.174570280571
 H    0.403595736083   -1.871268852345   -5.009258389019
 H    1.954512757225   -2.352065869851   -4.273821673005
