12

 H   -0.479386608580    3.150643057298    3.711109103969
 H   -0.336346608580    1.584533057298    4.545809103969
 H   -1.887286608580    2.065303057298    3.810379103969
 C   -0.794756608580    2.097543057298    3.687949103969
 S   -0.306456608580    1.307183057298    2.112709103969
 K   -0.051326608580   -1.502236942702    1.342009103969
 K   -0.040486608580    1.893863057298   -0.709050896031
 S    0.382578114183   -1.631878619297   -2.637491779040
 C    0.870878208641   -2.422236198114   -4.212728516632
 H    0.555494462579   -3.475329956429   -4.235898139392
 H    0.412491575489   -1.909213849622   -5.070586247840
 H    1.963408596631   -2.390010867127   -4.335149531827
