12

 H   -0.482733189824    3.164917822210    3.734180413234
 H   -0.339693189824    1.598807822210    4.568880413234
 H   -1.890633189824    2.079577822210    3.833450413234
 C   -0.798103189824    2.111817822210    3.711020413234
 S   -0.309803189824    1.321457822210    2.135780413234
 K   -0.054673189824   -1.487962177790    1.365080413234
 K   -0.043833189824    1.908137822210   -0.685979586766
 S    0.391473953589   -1.669823616574   -2.698819637861
 C    0.879774048047   -2.460181195391   -4.274056375453
 H    0.564390301985   -3.513274953706   -4.297225998213
 H    0.421387414894   -1.947158846898   -5.131914106662
 H    1.972304436036   -2.427955864404   -4.396477390648
