12

 H   -0.486079771069    3.179192587121    3.757251722498
 H   -0.343039771069    1.613082587121    4.591951722498
 H   -1.893979771069    2.093852587121    3.856521722498
 C   -0.801449771069    2.126092587121    3.734091722498
 S   -0.313149771069    1.335732587121    2.158851722498
 K   -0.058019771069   -1.473687412879    1.388151722498
 K   -0.047179771069    1.922412587121   -0.662908277502
 S    0.400369792995   -1.707768613850   -2.760147496683
 C    0.888669887452   -2.498126192668   -4.335384234275
 H    0.573286141391   -3.551219950983   -4.358553857035
 H    0.430283254300   -1.985103844175   -5.193241965483
 H    1.981200275442   -2.465900861681   -4.457805249470
