12

 H   -0.492772933558    3.207742116945    3.803394341027
 H   -0.349732933558    1.641632116945    4.638094341027
 H   -1.900672933558    2.122402116945    3.902664341027
 C   -0.808142933558    2.154642116945    3.780234341027
 S   -0.319842933558    1.364282116945    2.204994341027
 K   -0.064712933558   -1.445137883055    1.434294341027
 K   -0.053872933558    1.950962116945   -0.616765658973
 S    0.418161471806   -1.783658608404   -2.882803214326
 C    0.906461566264   -2.574016187221   -4.458039951918
 H    0.591077820203   -3.627109945536   -4.481209574678
 H    0.448074933112   -2.060993838729   -5.315897683126
 H    1.998991954254   -2.541790856234   -4.580460967112
