12

 H   -0.509505839781    3.279115941503    3.918750887349
 H   -0.366465839781    1.713005941503    4.753450887349
 H   -1.917405839781    2.193775941503    4.018020887349
 C   -0.824875839781    2.226015941503    3.895590887349
 S   -0.336575839781    1.435655941503    2.320350887349
 K   -0.081445839781   -1.373764058497    1.549650887349
 K   -0.070605839781    2.022335941503   -0.501409112651
 S    0.462640668835   -1.973383594788   -3.189442508433
 C    0.950940763293   -2.763741173605   -4.764679246025
 H    0.635557017232   -3.816834931920   -4.787848868785
 H    0.492554130141   -2.250718825112   -5.622536977234
 H    2.043471151283   -2.731515842618   -4.887100261220
