12

 H   -0.516199002270    3.307665471326    3.964893505878
 H   -0.373159002270    1.741555471326    4.799593505878
 H   -1.924099002270    2.222325471326    4.064163505878
 C   -0.831569002270    2.254565471326    3.941733505878
 S   -0.343269002270    1.464205471326    2.366493505878
 K   -0.088139002270   -1.345214528674    1.595793505878
 K   -0.077299002270    2.050885471326   -0.455266494122
 S    0.480432347647   -2.049273589341   -3.312098226076
 C    0.968732442105   -2.839631168159   -4.887334963668
 H    0.653348696044   -3.892724926473   -4.910504586428
 H    0.510345808953   -2.326608819666   -5.745192694877
 H    2.061262830095   -2.807405837172   -5.009755978863
