12

 H   -0.519545583514    3.321940236238    3.987964815143
 H   -0.376505583514    1.755830236238    4.822664815143
 H   -1.927445583514    2.236600236238    4.087234815143
 C   -0.834915583514    2.268840236238    3.964804815143
 S   -0.346615583514    1.478480236238    2.389564815143
 K   -0.091485583514   -1.330939763762    1.618864815143
 K   -0.080645583514    2.065160236238   -0.432195184857
 S    0.489328187053   -2.087218586618   -3.373426084898
 C    0.977628281511   -2.877576165435   -4.948662822489
 H    0.662244535449   -3.930669923750   -4.971832445250
 H    0.519241648359   -2.364553816943   -5.806520553698
 H    2.070158669501   -2.845350834448   -5.071083837684
