12

 H   -0.522892164759    3.336215001150    4.011036124407
 H   -0.379852164759    1.770105001150    4.845736124407
 H   -1.930792164759    2.250875001150    4.110306124407
 C   -0.838262164759    2.283115001150    3.987876124407
 S   -0.349962164759    1.492755001150    2.412636124407
 K   -0.094832164759   -1.316664998850    1.641936124407
 K   -0.083992164759    2.079435001150   -0.409123875593
 S    0.498224026459   -2.125163583895   -3.434753943719
 C    0.986524120917   -2.915521162712   -5.009990681311
 H    0.671140374855   -3.968614921027   -5.033160304071
 H    0.528137487764   -2.402498814219   -5.867848412520
 H    2.079054508906   -2.883295831725   -5.132411696506
