12

 H   -0.526238746003    3.350489766061    4.034107433672
 H   -0.383198746003    1.784379766061    4.868807433672
 H   -1.934138746003    2.265149766061    4.133377433672
 C   -0.841608746003    2.297389766061    4.010947433672
 S   -0.353308746003    1.507029766061    2.435707433672
 K   -0.098178746003   -1.302390233939    1.665007433672
 K   -0.087338746003    2.093709766061   -0.386052566328
 S    0.507119865865   -2.163108581171   -3.496081802541
 C    0.995419960322   -2.953466159989   -5.071318540132
 H    0.680036214261   -4.006559918304   -5.094488162893
 H    0.537033327170   -2.440443811496   -5.929176271341
 H    2.087950348312   -2.921240829002   -5.193739555327
