12

 H   -0.539625070981    3.407588825708    4.126392670730
 H   -0.396585070981    1.841478825708    4.961092670730
 H   -1.947525070981    2.322248825708    4.225662670730
 C   -0.854995070981    2.354488825708    4.103232670730
 S   -0.366695070981    1.564128825708    2.527992670730
 K   -0.111565070981   -1.245291174292    1.757292670730
 K   -0.100725070981    2.150808825708   -0.293767329270
 S    0.542703223488   -2.314888570278   -3.741393237827
 C    1.031003317946   -3.105246149096   -5.316629975418
 H    0.715619571884   -4.158339907411   -5.339799598179
 H    0.572616684794   -2.592223800603   -6.174487706627
 H    2.123533705936   -3.073020818109   -5.439050990613
