12

 H   -0.542971652226    3.421863590620    4.149463979994
 H   -0.399931652226    1.855753590620    4.984163979994
 H   -1.950871652226    2.336523590620    4.248733979994
 C   -0.858341652226    2.368763590620    4.126303979994
 S   -0.370041652226    1.578403590620    2.551063979994
 K   -0.114911652226   -1.231016409380    1.780363979994
 K   -0.104071652226    2.165083590620   -0.270696020006
 S    0.551599062894   -2.352833567555   -3.802721096648
 C    1.039899157351   -3.143191146373   -5.377957834240
 H    0.724515411290   -4.196284904687   -5.401127457000
 H    0.581512524199   -2.630168797880   -6.235815565448
 H    2.132429545341   -3.110965815386   -5.500378849435
