12

 H   -0.546318233470    3.436138355531    4.172535289259
 H   -0.403278233470    1.870028355531    5.007235289259
 H   -1.954218233470    2.350798355531    4.271805289259
 C   -0.861688233470    2.383038355531    4.149375289259
 S   -0.373388233470    1.592678355531    2.574135289259
 K   -0.118258233470   -1.216741644469    1.803435289259
 K   -0.107418233470    2.179358355531   -0.247624710741
 S    0.560494902300   -2.390778564832   -3.864048955470
 C    1.048794996757   -3.181136143649   -5.439285693061
 H    0.733411250696   -4.234229901964   -5.462455315822
 H    0.590408363605   -2.668113795157   -6.297143424270
 H    2.141325384747   -3.148910812662   -5.561706708256
