12

 H   -0.553011395959    3.464687885355    4.218677907788
 H   -0.409971395959    1.898577885355    5.053377907788
 H   -1.960911395959    2.379347885355    4.317947907788
 C   -0.868381395959    2.411587885355    4.195517907788
 S   -0.380081395959    1.621227885355    2.620277907788
 K   -0.124951395959   -1.188192114645    1.849577907788
 K   -0.114111395959    2.207907885355   -0.201482092212
 S    0.578286581111   -2.466668559385   -3.986704673113
 C    1.066586675569   -3.257026138203   -5.561941410704
 H    0.751202929508   -4.310119896518   -5.585111033465
 H    0.608200042417   -2.744003789710   -6.419799141913
 H    2.159117063559   -3.224800807216   -5.684362425899
