12

 H   -0.559704558449    3.493237415178    4.264820526317
 H   -0.416664558449    1.927127415178    5.099520526317
 H   -1.967604558449    2.407897415178    4.364090526317
 C   -0.875074558449    2.440137415178    4.241660526317
 S   -0.386774558449    1.649777415178    2.666420526317
 K   -0.131644558449   -1.159642584822    1.895720526317
 K   -0.120804558449    2.236457415178   -0.155339473683
 S    0.596078259923   -2.542558553939   -4.109360390755
 C    1.084378354381   -3.332916132756   -5.684597128347
 H    0.768994608319   -4.386009891071   -5.707766751107
 H    0.625991721229   -2.819893784264   -6.542454859556
 H    2.176908742371   -3.300690801769   -5.807018143542
