12

 H   -0.563051139693    3.507512180090    4.287891835581
 H   -0.420011139693    1.941402180090    5.122591835581
 H   -1.970951139693    2.422172180090    4.387161835581
 C   -0.878421139693    2.454412180090    4.264731835581
 S   -0.390121139693    1.664052180090    2.689491835581
 K   -0.134991139693   -1.145367819910    1.918791835581
 K   -0.124151139693    2.250732180090   -0.132268164419
 S    0.604974099329   -2.580503551216   -4.170688249577
 C    1.093274193786   -3.370861130033   -5.745924987169
 H    0.777890447725   -4.423954888348   -5.769094609929
 H    0.634887560634   -2.857838781540   -6.603782718377
 H    2.185804581776   -3.338635799046   -5.868346002364
