12

 H   -0.566397720938    3.521786945001    4.310963144846
 H   -0.423357720938    1.955676945001    5.145663144846
 H   -1.974297720938    2.436446945001    4.410233144846
 C   -0.881767720938    2.468686945001    4.287803144846
 S   -0.393467720938    1.678326945001    2.712563144846
 K   -0.138337720938   -1.131093054999    1.941863144846
 K   -0.127497720938    2.265006945001   -0.109196855154
 S    0.613869938735   -2.618448548493   -4.232016108398
 C    1.102170033192   -3.408806127310   -5.807252845990
 H    0.786786287131   -4.461899885625   -5.830422468750
 H    0.643783400040   -2.895783778817   -6.665110577199
 H    2.194700421182   -3.376580796323   -5.929673861185
