12

 H   -0.579784045916    3.578886004648    4.403248381904
 H   -0.436744045916    2.012776004648    5.237948381904
 H   -1.987684045916    2.493546004648    4.502518381904
 C   -0.895154045916    2.525786004648    4.380088381904
 S   -0.406854045916    1.735426004648    2.804848381904
 K   -0.151724045916   -1.073993995352    2.034148381904
 K   -0.140884045916    2.322106004648   -0.016911618096
 S    0.649453296358   -2.770228537600   -4.477327543684
 C    1.137753390816   -3.560586116417   -6.052564281276
 H    0.822369644754   -4.613679874732   -6.075733904036
 H    0.679366757664   -3.047563767924   -6.910422012485
 H    2.230283778806   -3.528360785430   -6.174985296471
