12

 H   -0.583130627160    3.593160769560    4.426319691168
 H   -0.440090627160    2.027050769560    5.261019691168
 H   -1.991030627160    2.507820769560    4.525589691168
 C   -0.898500627160    2.540060769560    4.403159691168
 S   -0.410200627160    1.749700769560    2.827919691168
 K   -0.155070627160   -1.059719230440    2.057219691168
 K   -0.144230627160    2.336380769560    0.006159691168
 S    0.658349135764   -2.808173534876   -4.538655402506
 C    1.146649230221   -3.598531113694   -6.113892140098
 H    0.831265484160   -4.651624872008   -6.137061762858
 H    0.688262597069   -3.085508765201   -6.971749871306
 H    2.239179618211   -3.566305782707   -6.236313155292
