12

 H   -0.589823789649    3.621710299383    4.472462309697
 H   -0.446783789649    2.055600299383    5.307162309697
 H   -1.997723789649    2.536370299383    4.571732309697
 C   -0.905193789649    2.568610299383    4.449302309697
 S   -0.416893789649    1.778250299383    2.874062309697
 K   -0.161763789649   -1.031169700617    2.103362309697
 K   -0.150923789649    2.364930299383    0.052302309697
 S    0.676140814575   -2.884063529430   -4.661311120149
 C    1.164440909033   -3.674421108247   -6.236547857740
 H    0.849057162972   -4.727514866562   -6.259717480501
 H    0.706054275881   -3.161398759754   -7.094405588949
 H    2.256971297023   -3.642195777260   -6.358968872935
