12

 H   -0.593170370894    3.635985064295    4.495533618962
 H   -0.450130370894    2.069875064295    5.330233618962
 H   -2.001070370894    2.550645064295    4.594803618962
 C   -0.908540370894    2.582885064295    4.472373618962
 S   -0.420240370894    1.792525064295    2.897133618962
 K   -0.165110370894   -1.016894935705    2.126433618962
 K   -0.154270370894    2.379205064295    0.075373618962
 S    0.685036653981   -2.922008526707   -4.722638978970
 C    1.173336748439   -3.712366105524   -6.297875716562
 H    0.857953002378   -4.765459863839   -6.321045339322
 H    0.714950115287   -3.199343757031   -7.155733447771
 H    2.265867136429   -3.680140774537   -6.420296731757
