12

 H   -0.606556695872    3.693084123941    4.587818856020
 H   -0.463516695872    2.126974123941    5.422518856020
 H   -2.014456695872    2.607744123941    4.687088856020
 C   -0.921926695872    2.639984123941    4.564658856020
 S   -0.433626695872    1.849624123941    2.989418856020
 K   -0.178496695872   -0.959795876059    2.218718856020
 K   -0.167656695872    2.436304123941    0.167658856020
 S    0.720620011604   -3.073788515814   -4.967950414256
 C    1.208920106062   -3.864146094631   -6.543187151848
 H    0.893536360001   -4.917239852946   -6.566356774608
 H    0.750533472910   -3.351123746138   -7.401044883057
 H    2.301450494052   -3.831920763644   -6.665608167043
