12

 H   -0.629982764584    3.793007478323    4.749318020871
 H   -0.486942764584    2.226897478323    5.584018020871
 H   -2.037882764584    2.707667478323    4.848588020871
 C   -0.945352764584    2.739907478323    4.726158020871
 S   -0.457052764584    1.949547478323    3.150918020871
 K   -0.201922764584   -0.859872521677    2.380218020871
 K   -0.191082764584    2.536227478323    0.329158020871
 S    0.782890887445   -3.339403496751   -5.397245426007
 C    1.271190981903   -4.129761075568   -6.972482163598
 H    0.955807235842   -5.182854833883   -6.995651786359
 H    0.812804348751   -3.616738727075   -7.830339894807
 H    2.363721369893   -4.097535744581   -7.094903178793
