12

 H   -0.640022508317    3.835831773058    4.818531948665
 H   -0.496982508317    2.269721773058    5.653231948665
 H   -2.047922508317    2.750491773058    4.917801948665
 C   -0.955392508317    2.782731773058    4.795371948665
 S   -0.467092508317    1.992371773058    3.220131948665
 K   -0.211962508317   -0.817048226942    2.449431948665
 K   -0.201122508317    2.579051773058    0.398371948665
 S    0.809578405663   -3.453238488581   -5.581229002471
 C    1.297878500121   -4.243596067398   -7.156465740063
 H    0.982494754059   -5.296689825713   -7.179635362823
 H    0.839491866969   -3.730573718906   -8.014323471271
 H    2.390408888111   -4.211370736412   -7.278886755258
