12

 H   -0.643369089562    3.850106537969    4.841603257929
 H   -0.500329089562    2.283996537969    5.676303257929
 H   -2.051269089562    2.764766537969    4.940873257929
 C   -0.958739089562    2.797006537969    4.818443257929
 S   -0.470439089562    2.006646537969    3.243203257929
 K   -0.215309089562   -0.802773462031    2.472503257929
 K   -0.204469089562    2.593326537969    0.421443257929
 S    0.818474245069   -3.491183485858   -5.642556861292
 C    1.306774339526   -4.281541064675   -7.217793598884
 H    0.991390593465   -5.334634822990   -7.240963221644
 H    0.848387706374   -3.768518716183   -8.075651330093
 H    2.399304727516   -4.249315733688   -7.340214614079
