12

 H   -0.653408833295    3.892930832704    4.910817185723
 H   -0.510368833295    2.326820832704    5.745517185723
 H   -2.061308833295    2.807590832704    5.010087185723
 C   -0.968778833295    2.839830832704    4.887657185723
 S   -0.480478833295    2.049470832704    3.312417185723
 K   -0.225348833295   -0.759949167296    2.541717185723
 K   -0.214508833295    2.636150832704    0.490657185723
 S    0.845161763286   -3.605018477688   -5.826540437757
 C    1.333461857744   -4.395376056506   -7.401777175349
 H    1.018078111683   -5.448469814820   -7.424946798109
 H    0.875075224592   -3.882353708013   -8.259634906557
 H    2.425992245734   -4.363150725519   -7.524198190543
