12

 H   -0.660101995784    3.921480362528    4.956959804252
 H   -0.517061995784    2.355370362528    5.791659804252
 H   -2.068001995784    2.836140362528    5.056229804252
 C   -0.975471995784    2.868380362528    4.933799804252
 S   -0.487171995784    2.078020362528    3.358559804252
 K   -0.232041995784   -0.731399637472    2.587859804252
 K   -0.221201995784    2.664700362528    0.536799804252
 S    0.862953442098   -3.680908472242   -5.949196155400
 C    1.351253536556   -4.471266051059   -7.524432892992
 H    1.035869790494   -5.524359809374   -7.547602515752
 H    0.892866903404   -3.958243702566   -8.382290624200
 H    2.443783924546   -4.439040720072   -7.646853908186
