12

 H   -0.673488320763    3.978579422174    5.049245041310
 H   -0.530448320763    2.412469422174    5.883945041310
 H   -2.081388320763    2.893239422174    5.148515041310
 C   -0.988858320763    2.925479422174    5.026085041310
 S   -0.500558320763    2.135119422174    3.450845041310
 K   -0.245428320763   -0.674300577826    2.680145041310
 K   -0.234588320763    2.721799422174    0.629085041310
 S    0.898536799721   -3.832688461349   -6.194507590686
 C    1.386836894179   -4.623046040166   -7.769744328277
 H    1.071453148118   -5.676139798481   -7.792913951038
 H    0.928450261027   -4.110023691673   -8.627602059486
 H    2.479367282169   -4.590820709179   -7.892165343472
