12

 H   -0.676834902007    3.992854187086    5.072316350574
 H   -0.533794902007    2.426744187086    5.907016350574
 H   -2.084734902007    2.907514187086    5.171586350574
 C   -0.992204902007    2.939754187086    5.049156350574
 S   -0.503904902007    2.149394187086    3.473916350574
 K   -0.248774902007   -0.660025812914    2.703216350574
 K   -0.237934902007    2.736074187086    0.652156350574
 S    0.907432639127   -3.870633458625   -6.255835449507
 C    1.395732733585   -4.660991037443   -7.831072187099
 H    1.080348987524   -5.714084795758   -7.854241809859
 H    0.937346100433   -4.147968688950   -8.688929918308
 H    2.488263121575   -4.628765706456   -7.953493202294
