17

 N   -2.053144923929   -0.844710072750    0.505730883328
 C   -0.842956857085   -0.189503869074    0.509692507296
 N    0.390455557218   -0.788181563536    0.521730792201
 C    1.360878757274    0.101994578075    0.509858335228
 N    1.157801919861    1.463632711589    0.503023174886
 H    1.961629045112    2.083593251344    0.421035152464
 N    2.686333511511   -0.316680143605    0.431511031993
 H    3.340869716843    0.215123080795    0.999151808723
 H    2.765138598902   -1.317380287540    0.593094369982
 C   -0.101471822456    2.149666415120    0.515976961563
 O   -0.129052191561    3.377839499897    0.511888833135
 C   -1.174256948432    1.175973025846    0.522178159503
 N   -2.545330250201    1.362304071159    0.522102974787
 C   -3.038853744712    0.123701057114    0.511772875122
 H   -4.096351657980   -0.130445564718    0.508826230696
 H   -2.178241920460   -1.851293157982    0.497071332297
CS    0.383073291506   -0.794804129209   -0.578224499516
