17

 N   -2.052516691326   -0.844146490805    0.599337345524
 C   -0.842328624482   -0.188940287129    0.603298969492
 N    0.391083789821   -0.787617981591    0.615337254397
 C    1.361506989877    0.102558160020    0.603464797424
 N    1.158430152464    1.464196293534    0.596629637082
 H    1.962257277715    2.084156833289    0.514641614660
 N    2.686961744114   -0.316116561660    0.525117494189
 H    3.341497949446    0.215686662740    1.092758270919
 H    2.765766831505   -1.316816705595    0.686700832178
 C   -0.100843589853    2.150229997065    0.609583423759
 O   -0.128423958958    3.378403081842    0.605495295331
 C   -1.173628715829    1.176536607791    0.615784621699
 N   -2.544702017598    1.362867653104    0.615709436983
 C   -3.038225512109    0.124264639059    0.605379337318
 H   -4.095723425377   -0.129881982773    0.602432692892
 H   -2.177613687857   -1.850729576037    0.590677794493
CS    0.382359293980   -0.795444650113   -0.684609908541
