17

 N   -2.051888458723   -0.843582908859    0.692943807721
 C   -0.841700391879   -0.188376705183    0.696905431689
 N    0.391712022424   -0.787054399645    0.708943716594
 C    1.362135222480    0.103121741966    0.697071259621
 N    1.159058385067    1.464759875480    0.690236099279
 H    1.962885510318    2.084720415235    0.608248076857
 N    2.687589976717   -0.315552979714    0.618723956386
 H    3.342126182049    0.216250244686    1.186364733116
 H    2.766395064108   -1.316253123649    0.780307294375
 C   -0.100215357250    2.150793579011    0.703189885956
 O   -0.127795726355    3.378966663788    0.699101757528
 C   -1.173000483226    1.177100189737    0.709391083896
 N   -2.544073784995    1.363431235050    0.709315899180
 C   -3.037597279506    0.124828221005    0.698985799515
 H   -4.095095192774   -0.129318400827    0.696039155089
 H   -2.176985455254   -1.850165994091    0.684284256690
CS    0.381645296454   -0.796085171017   -0.790995317566
