17

 N   -2.051574342422   -0.843301117887    0.739747038819
 C   -0.841386275578   -0.188094914211    0.743708662787
 N    0.392026138725   -0.786772608673    0.755746947692
 C    1.362449338781    0.103403532938    0.743874490719
 N    1.159372501368    1.465041666452    0.737039330377
 H    1.963199626619    2.085002206207    0.655051307955
 N    2.687904093018   -0.315271188742    0.665527187484
 H    3.342440298350    0.216532035658    1.233167964214
 H    2.766709180409   -1.315971332677    0.827110525473
 C   -0.099901240949    2.151075369983    0.749993117054
 O   -0.127481610054    3.379248454760    0.745904988626
 C   -1.172686366925    1.177381980709    0.756194314994
 N   -2.543759668694    1.363713026022    0.756119130278
 C   -3.037283163205    0.125110011977    0.745789030613
 H   -4.094781076473   -0.129036609855    0.742842386187
 H   -2.176671338953   -1.849884203119    0.731087487788
CS    0.381288297691   -0.796405431469   -0.844188022079
