17

 N   -2.050631993517   -0.842455744968    0.880156732114
 C   -0.840443926673   -0.187249541292    0.884118356082
 N    0.392968487630   -0.785927235754    0.896156640987
 C    1.363391687686    0.104248905857    0.884284184014
 N    1.160314850273    1.465887039371    0.877449023672
 H    1.964141975524    2.085847579126    0.795461001250
 N    2.688846441923   -0.314425815823    0.805936880779
 H    3.343382647255    0.217377408577    1.373577657509
 H    2.767651529314   -1.315125959758    0.967520218768
 C   -0.098958892044    2.151920742902    0.890402810349
 O   -0.126539261149    3.380093827679    0.886314681921
 C   -1.171744018020    1.178227353628    0.896604008289
 N   -2.542817319789    1.364558398941    0.896528823573
 C   -3.036340814300    0.125955384896    0.886198723908
 H   -4.093838727568   -0.128191236936    0.883252079482
 H   -2.175728990048   -1.849038830200    0.871497181083
CS    0.380217301402   -0.797366212825   -1.003766135616
