17

 N   -2.049375528311   -0.841328581077    1.067369656506
 C   -0.839187461467   -0.186122377401    1.071331280474
 N    0.394224952836   -0.784800071863    1.083369565379
 C    1.364648152892    0.105376069748    1.071497108406
 N    1.161571315479    1.467014203262    1.064661948064
 H    1.965398440730    2.086974743017    0.982673925642
 N    2.690102907129   -0.313298651932    0.993149805171
 H    3.344639112461    0.218504572468    1.560790581901
 H    2.768907994520   -1.313998795867    1.154733143160
 C   -0.097702426838    2.153047906793    1.077615734741
 O   -0.125282795943    3.381220991570    1.073527606313
 C   -1.170487552814    1.179354517519    1.083816932681
 N   -2.541560854583    1.365685562832    1.083741747965
 C   -3.035084349094    0.127082548787    1.073411648300
 H   -4.092582262362   -0.127064073045    1.070465003874
 H   -2.174472524842   -1.847911666309    1.058710105475
CS    0.378789306349   -0.798647254633   -1.216536953666
