17

 N   -2.048747295708   -0.840764999132    1.160976118703
 C   -0.838559228864   -0.185558795456    1.164937742671
 N    0.394853185439   -0.784236489918    1.176976027576
 C    1.365276385495    0.105939651693    1.165103570603
 N    1.162199548082    1.467577785207    1.158268410261
 H    1.966026673333    2.087538324962    1.076280387839
 N    2.690731139732   -0.312735069987    1.086756267368
 H    3.345267345064    0.219068154413    1.654397044098
 H    2.769536227123   -1.313435213922    1.248339605357
 C   -0.097074194235    2.153611488738    1.171222196938
 O   -0.124654563340    3.381784573515    1.167134068510
 C   -1.169859320211    1.179918099464    1.177423394878
 N   -2.540932621980    1.366249144777    1.177348210162
 C   -3.034456116491    0.127646130732    1.167018110497
 H   -4.091954029759   -0.126500491100    1.164071466071
 H   -2.173844292239   -1.847348084364    1.152316567672
CS    0.378075308823   -0.799287775537   -1.322922362691
