17

 N   -2.048119063105   -0.840201417186    1.254582580899
 C   -0.837930996261   -0.184995213510    1.258544204867
 N    0.395481418042   -0.783672907972    1.270582489772
 C    1.365904618098    0.106503233639    1.258710032799
 N    1.162827780685    1.468141367153    1.251874872457
 H    1.966654905936    2.088101906908    1.169886850035
 N    2.691359372335   -0.312171488041    1.180362729564
 H    3.345895577667    0.219631736359    1.748003506294
 H    2.770164459726   -1.312871631976    1.341946067553
 C   -0.096445961632    2.154175070684    1.264828659134
 O   -0.124026330737    3.382348155461    1.260740530706
 C   -1.169231087608    1.180481681410    1.271029857074
 N   -2.540304389377    1.366812726723    1.270954672358
 C   -3.033827883888    0.128209712678    1.260624572693
 H   -4.091325797156   -0.125936909154    1.257677928267
 H   -2.173216059636   -1.846784502418    1.245923029868
CS    0.377361311297   -0.799928296441   -1.429307771716
