17

 N   -2.047804946803   -0.839919626214    1.301385811998
 C   -0.837616879959   -0.184713422538    1.305347435966
 N    0.395795534344   -0.783391117000    1.317385720871
 C    1.366218734400    0.106785024611    1.305513263898
 N    1.163141896987    1.468423158125    1.298678103556
 H    1.966969022238    2.088383697880    1.216690081134
 N    2.691673488637   -0.311889697069    1.227165960663
 H    3.346209693969    0.219913527331    1.794806737393
 H    2.770478576028   -1.312589841004    1.388749298652
 C   -0.096131845330    2.154456861656    1.311631890233
 O   -0.123712214435    3.382629946433    1.307543761805
 C   -1.168916971306    1.180763472382    1.317833088173
 N   -2.539990273075    1.367094517695    1.317757903457
 C   -3.033513767586    0.128491503650    1.307427803792
 H   -4.091011680854   -0.125655118182    1.304481159366
 H   -2.172901943334   -1.846502711446    1.292726260967
CS    0.377004312534   -0.800248556893   -1.482500476228
