17

 N   -2.047490830501   -0.839637835241    1.348189043096
 C   -0.837302763657   -0.184431631565    1.352150667064
 N    0.396109650646   -0.783109326027    1.364188951969
 C    1.366532850702    0.107066815584    1.352316494996
 N    1.163456013289    1.468704949098    1.345481334654
 H    1.967283138540    2.088665488853    1.263493312232
 N    2.691987604939   -0.311607906096    1.273969191761
 H    3.346523810271    0.220195318304    1.841609968491
 H    2.770792692330   -1.312308050031    1.435552529750
 C   -0.095817729028    2.154738652629    1.358435121331
 O   -0.123398098133    3.382911737406    1.354346992903
 C   -1.168602855004    1.181045263355    1.364636319271
 N   -2.539676156773    1.367376308668    1.364561134555
 C   -3.033199651284    0.128773294623    1.354231034890
 H   -4.090697564552   -0.125373327209    1.351284390464
 H   -2.172587827032   -1.846220920473    1.339529492065
CS    0.376647313771   -0.800568817345   -1.535693180740
