17

 N   -2.046862597898   -0.839074253295    1.441795505292
 C   -0.836674531054   -0.183868049619    1.445757129260
 N    0.396737883249   -0.782545744081    1.457795414165
 C    1.367161083305    0.107630397530    1.445922957192
 N    1.164084245892    1.469268531044    1.439087796850
 H    1.967911371143    2.089229070799    1.357099774428
 N    2.692615837542   -0.311044324150    1.367575653957
 H    3.347152042874    0.220758900250    1.935216430687
 H    2.771420924933   -1.311744468085    1.529158991946
 C   -0.095189496425    2.155302234575    1.452041583527
 O   -0.122769865530    3.383475319352    1.447953455099
 C   -1.167974622401    1.181608845301    1.458242781467
 N   -2.539047924170    1.367939890614    1.458167596751
 C   -3.032571418681    0.129336876569    1.447837497086
 H   -4.090069331949   -0.124809745263    1.444890852660
 H   -2.171959594429   -1.845657338527    1.433135954261
CS    0.375933316244   -0.801209338249   -1.642078589765
