17

 N   -2.043721434883   -0.836256343568    1.909827816274
 C   -0.833533368039   -0.181050139892    1.913789440242
 N    0.399879046264   -0.779727834354    1.925827725147
 C    1.370302246320    0.110448307257    1.913955268174
 N    1.167225408907    1.472086440771    1.907120107832
 H    1.971052534158    2.092046980526    1.825132085410
 N    2.695757000557   -0.308226414423    1.835607964939
 H    3.350293205889    0.223576809977    2.403248741669
 H    2.774562087948   -1.308926558358    1.997191302928
 C   -0.092048333410    2.158120144302    1.920073894509
 O   -0.119628702515    3.386293229079    1.915985766081
 C   -1.164833459386    1.184426755028    1.926275092449
 N   -2.535906761155    1.370757800341    1.926199907733
 C   -3.029430255666    0.132154786296    1.915869808068
 H   -4.086928168934   -0.121991835536    1.912923163642
 H   -2.168818431414   -1.842839428800    1.901168265243
CS    0.372363328613   -0.804411942770   -2.174005634890
