17

 N   -2.043407318581   -0.835974552595    1.956631047373
 C   -0.833219251737   -0.180768348919    1.960592671341
 N    0.400193162566   -0.779446043381    1.972630956246
 C    1.370616362622    0.110730098230    1.960758499273
 N    1.167539525209    1.472368231744    1.953923338931
 H    1.971366650460    2.092328771499    1.871935316509
 N    2.696071116859   -0.307944623450    1.882411196038
 H    3.350607322191    0.223858600950    2.450051972768
 H    2.774876204250   -1.308644767385    2.043994534027
 C   -0.091734217108    2.158401935275    1.966877125608
 O   -0.119314586213    3.386575020052    1.962788997180
 C   -1.164519343084    1.184708546001    1.973078323548
 N   -2.535592644853    1.371039591314    1.973003138832
 C   -3.029116139364    0.132436577269    1.962673039167
 H   -4.086614052632   -0.121710044563    1.959726394741
 H   -2.168504315112   -1.842557637827    1.947971496342
CS    0.372006329850   -0.804732203222   -2.227198339402
