17

 N   -2.043093202280   -0.835692761622    2.003434278471
 C   -0.832905135436   -0.180486557946    2.007395902439
 N    0.400507278867   -0.779164252408    2.019434187344
 C    1.370930478923    0.111011889203    2.007561730371
 N    1.167853641510    1.472650022717    2.000726570029
 H    1.971680766761    2.092610562472    1.918738547607
 N    2.696385233160   -0.307662832477    1.929214427136
 H    3.350921438492    0.224140391923    2.496855203866
 H    2.775190320551   -1.308362976412    2.090797765125
 C   -0.091420100807    2.158683726248    2.013680356706
 O   -0.119000469912    3.386856811025    2.009592228278
 C   -1.164205226783    1.184990336974    2.019881554646
 N   -2.535278528552    1.371321382287    2.019806369930
 C   -3.028802023063    0.132718368242    2.009476270265
 H   -4.086299936331   -0.121428253590    2.006529625839
 H   -2.168190198811   -1.842275846854    1.994774727440
CS    0.371649331087   -0.805052463674   -2.280391043915
