17

 N   -2.042150853375   -0.834847388704    2.143843971766
 C   -0.831962786531   -0.179641185028    2.147805595734
 N    0.401449627772   -0.778318879490    2.159843880639
 C    1.371872827828    0.111857262121    2.147971423666
 N    1.168795990415    1.473495395635    2.141136263324
 H    1.972623115666    2.093455935390    2.059148240902
 N    2.697327582065   -0.306817459559    2.069624120431
 H    3.351863787397    0.224985764841    2.637264897161
 H    2.776132669456   -1.307517603494    2.231207458420
 C   -0.090477751902    2.159529099166    2.154090050001
 O   -0.118058121007    3.387702183943    2.150001921573
 C   -1.163262877878    1.185835709892    2.160291247941
 N   -2.534336179647    1.372166755205    2.160216063225
 C   -3.027859674158    0.133563741160    2.149885963560
 H   -4.085357587426   -0.120582880672    2.146939319134
 H   -2.167247849906   -1.841430473936    2.135184420735
CS    0.370578334798   -0.806013245030   -2.439969157452
