17

 N   -2.041522620772   -0.834283806759    2.237450433962
 C   -0.831334553928   -0.179077603083    2.241412057930
 N    0.402077860375   -0.777755297545    2.253450342835
 C    1.372501060431    0.112420844066    2.241577885862
 N    1.169424223018    1.474058977580    2.234742725520
 H    1.973251348269    2.094019517335    2.152754703098
 N    2.697955814668   -0.306253877614    2.163230582627
 H    3.352492020000    0.225549346786    2.730871359357
 H    2.776760902059   -1.306954021549    2.324813920616
 C   -0.089849519299    2.160092681111    2.247696512197
 O   -0.117429888404    3.388265765888    2.243608383769
 C   -1.162634645275    1.186399291837    2.253897710137
 N   -2.533707947044    1.372730337150    2.253822525421
 C   -3.027231441555    0.134127323105    2.243492425756
 H   -4.084729354823   -0.120019298727    2.240545781330
 H   -2.166619617303   -1.840866891991    2.228790882931
CS    0.369864337272   -0.806653765934   -2.546354566477
