17

 N   -2.040894388169   -0.833720224813    2.331056896158
 C   -0.830706321325   -0.178514021137    2.335018520126
 N    0.402706092978   -0.777191715599    2.347056805031
 C    1.373129293034    0.112984426012    2.335184348058
 N    1.170052455621    1.474622559526    2.328349187716
 H    1.973879580872    2.094583099281    2.246361165294
 N    2.698584047271   -0.305690295668    2.256837044823
 H    3.353120252603    0.226112928732    2.824477821553
 H    2.777389134662   -1.306390439603    2.418420382812
 C   -0.089221286696    2.160656263057    2.341302974393
 O   -0.116801655801    3.388829347834    2.337214845965
 C   -1.162006412672    1.186962873783    2.347504172333
 N   -2.533079714441    1.373293919096    2.347428987617
 C   -3.026603208952    0.134690905051    2.337098887952
 H   -4.084101122220   -0.119455716781    2.334152243526
 H   -2.165991384700   -1.840303310045    2.322397345127
CS    0.369150339745   -0.807294286838   -2.652739975502
