17

 N   -2.040580271867   -0.833438433840    2.377860127257
 C   -0.830392205023   -0.178232230164    2.381821751225
 N    0.403020209280   -0.776909924626    2.393860036130
 C    1.373443409336    0.113266216985    2.381987579157
 N    1.170366571923    1.474904350499    2.375152418815
 H    1.974193697174    2.094864890254    2.293164396393
 N    2.698898163573   -0.305408504695    2.303640275922
 H    3.353434368905    0.226394719705    2.871281052652
 H    2.777703250964   -1.306108648630    2.465223613911
 C   -0.088907170394    2.160938054030    2.388106205492
 O   -0.116487539499    3.389111138807    2.384018077064
 C   -1.161692296370    1.187244664756    2.394307403432
 N   -2.532765598139    1.373575710069    2.394232218716
 C   -3.026289092650    0.134972696024    2.383902119051
 H   -4.083787005918   -0.119173925808    2.380955474625
 H   -2.165677268398   -1.840021519072    2.369200576226
CS    0.368793340982   -0.807614547290   -2.705932680014
