17

 N   -2.038381457756   -0.831465897031    2.705482744944
 C   -0.828193390912   -0.176259693355    2.709444368912
 N    0.405219023391   -0.774937387817    2.721482653817
 C    1.375642223447    0.115238753794    2.709610196844
 N    1.172565386034    1.476876887308    2.702775036502
 H    1.976392511285    2.096837427063    2.620787014080
 N    2.701096977684   -0.303435967886    2.631262893609
 H    3.355633183016    0.228367256514    3.198903670339
 H    2.779902065075   -1.304136111821    2.792846231598
 C   -0.086708356283    2.162910590839    2.715728823179
 O   -0.114288725388    3.391083675616    2.711640694751
 C   -1.159493482259    1.189217201565    2.721930021119
 N   -2.530566784028    1.375548246878    2.721854836403
 C   -3.024090278539    0.136945232833    2.711524736738
 H   -4.081588191807   -0.117201388999    2.708578092312
 H   -2.163478454287   -1.838048982263    2.696823193913
CS    0.366294349641   -0.809856370454   -3.078281611601
