17

 N   -2.037753225153   -0.830902315085    2.799089207141
 C   -0.827565158309   -0.175696111409    2.803050831109
 N    0.405847255994   -0.774373805871    2.815089116014
 C    1.376270456050    0.115802335740    2.803216659041
 N    1.173193618637    1.477440469254    2.796381498699
 H    1.977020743888    2.097401009009    2.714393476277
 N    2.701725210287   -0.302872385940    2.724869355806
 H    3.356261415619    0.228930838460    3.292510132536
 H    2.780530297678   -1.303572529875    2.886452693795
 C   -0.086080123680    2.163474172785    2.809335285376
 O   -0.113660492785    3.391647257562    2.805247156948
 C   -1.158865249656    1.189780783511    2.815536483316
 N   -2.529938551425    1.376111828824    2.815461298600
 C   -3.023462045936    0.137508814779    2.805131198935
 H   -4.080959959204   -0.116637807053    2.802184554509
 H   -2.162850221684   -1.837485400317    2.790429656110
CS    0.365580352114   -0.810496891358   -3.184667020626
