17

 N   -2.036810876249   -0.830056942167    2.939498900435
 C   -0.826622809405   -0.174850738491    2.943460524403
 N    0.406789604898   -0.773528432953    2.955498809308
 C    1.377212804954    0.116647708658    2.943626352335
 N    1.174135967541    1.478285842172    2.936791191993
 H    1.977963092792    2.098246381927    2.854803169571
 N    2.702667559191   -0.302027013022    2.865279049100
 H    3.357203764523    0.229776211378    3.432919825830
 H    2.781472646582   -1.302727156957    3.026862387089
 C   -0.085137774776    2.164319545703    2.949744978670
 O   -0.112718143881    3.392492630480    2.945656850242
 C   -1.157922900752    1.190626156429    2.955946176610
 N   -2.528996202521    1.376957201742    2.955870991894
 C   -3.022519697032    0.138354187697    2.945540892229
 H   -4.080017610300   -0.115792434135    2.942594247803
 H   -2.161907872780   -1.836640027399    2.930839349404
CS    0.364509355825   -0.811457672714   -3.344245134163
