17

 N   -2.035554411042   -0.828929778276    3.126711824828
 C   -0.825366344198   -0.173723574600    3.130673448796
 N    0.408046070105   -0.772401269062    3.142711733701
 C    1.378469270161    0.117774872549    3.130839276728
 N    1.175392432748    1.479413006063    3.124004116386
 H    1.979219557999    2.099373545818    3.042016093964
 N    2.703924024398   -0.300899849131    3.052491973493
 H    3.358460229730    0.230903375269    3.620132750223
 H    2.782729111789   -1.301599993066    3.214075311482
 C   -0.083881309569    2.165446709594    3.136957903063
 O   -0.111461678674    3.393619794371    3.132869774635
 C   -1.156666435545    1.191753320320    3.143159101003
 N   -2.527739737314    1.378084365633    3.143083916287
 C   -3.021263231825    0.139481351588    3.132753816622
 H   -4.078761145093   -0.114665270244    3.129807172196
 H   -2.160651407573   -1.835512863508    3.118052273797
CS    0.363081360773   -0.812738714523   -3.557015952213
