17

 N   -2.035240294741   -0.828647987303    3.173515055927
 C   -0.825052227897   -0.173441783627    3.177476679895
 N    0.408360186406   -0.772119478089    3.189514964800
 C    1.378783386462    0.118056663522    3.177642507827
 N    1.175706549049    1.479694797036    3.170807347485
 H    1.979533674300    2.099655336791    3.088819325063
 N    2.704238140699   -0.300618058158    3.099295204592
 H    3.358774346031    0.231185166242    3.666935981322
 H    2.783043228090   -1.301318202093    3.260878542581
 C   -0.083567193268    2.165728500567    3.183761134162
 O   -0.111147562373    3.393901585344    3.179673005734
 C   -1.156352319244    1.192035111293    3.189962332102
 N   -2.527425621013    1.378366156606    3.189887147386
 C   -3.020949115524    0.139763142561    3.179557047721
 H   -4.078447028792   -0.114383479271    3.176610403295
 H   -2.160337291272   -1.835231072535    3.164855504896
CS    0.362724362010   -0.813058974975   -3.610208656726
