17

 N   -2.033983829535   -0.827520823412    3.360727980319
 C   -0.823795762691   -0.172314619736    3.364689604287
 N    0.409616651612   -0.770992314198    3.376727889192
 C    1.380039851668    0.119183827413    3.364855432219
 N    1.176963014255    1.480821960927    3.358020271877
 H    1.980790139506    2.100782500682    3.276032249455
 N    2.705494605905   -0.299490894267    3.286508128984
 H    3.360030811237    0.232312330133    3.854148905714
 H    2.784299693296   -1.300191038202    3.448091466973
 C   -0.082310728062    2.166855664458    3.370974058554
 O   -0.109891097167    3.395028749235    3.366885930126
 C   -1.155095854038    1.193162275184    3.377175256494
 N   -2.526169155807    1.379493320497    3.377100071778
 C   -3.019692650318    0.140890306452    3.366769972113
 H   -4.077190563586   -0.113256315380    3.363823327687
 H   -2.159080826066   -1.834103908644    3.352068429288
CS    0.361296366957   -0.814340016783   -3.822979474775
