17

 N   -2.033669713233   -0.827239032440    3.407531211418
 C   -0.823481646389   -0.172032828764    3.411492835386
 N    0.409930767914   -0.770710523226    3.423531120291
 C    1.380353967970    0.119465618385    3.411658663318
 N    1.177277130557    1.481103751899    3.404823502976
 H    1.981104255808    2.101064291654    3.322835480554
 N    2.705808722207   -0.299209103295    3.333311360083
 H    3.360344927539    0.232594121105    3.900952136813
 H    2.784613809598   -1.299909247230    3.494894698072
 C   -0.081996611760    2.167137455430    3.417777289653
 O   -0.109576980865    3.395310540207    3.413689161225
 C   -1.154781737736    1.193444066156    3.423978487593
 N   -2.525855039505    1.379775111469    3.423903302877
 C   -3.019378534016    0.141172097424    3.413573203212
 H   -4.076876447284   -0.112974524408    3.410626558786
 H   -2.158766709764   -1.833822117672    3.398871660387
CS    0.360939368194   -0.814660277235   -3.876172179288
