17

 N   -2.032413248027   -0.826111868549    3.594744135811
 C   -0.822225181183   -0.170905664873    3.598705759779
 N    0.411187233120   -0.769583359335    3.610744044684
 C    1.381610433176    0.120592782276    3.598871587711
 N    1.178533595763    1.482230915790    3.592036427369
 H    1.982360721014    2.102191455545    3.510048404947
 N    2.707065187413   -0.298081939404    3.520524284476
 H    3.361601392745    0.233721284996    4.088165061206
 H    2.785870274804   -1.298782083339    3.682107622465
 C   -0.080740146554    2.168264619321    3.604990214046
 O   -0.108320515659    3.396437704098    3.600902085618
 C   -1.153525272530    1.194571230047    3.611191411986
 N   -2.524598574299    1.380902275360    3.611116227270
 C   -3.018122068810    0.142299261315    3.600786127605
 H   -4.075619982078   -0.111847360517    3.597839483179
 H   -2.157510244558   -1.832694953781    3.586084584780
CS    0.359511373142   -0.815941319043   -4.088942997338
