17

 N   -2.031156782821   -0.824984704658    3.781957060203
 C   -0.820968715977   -0.169778500982    3.785918684171
 N    0.412443698326   -0.768456195444    3.797956969076
 C    1.382866898382    0.121719946167    3.786084512103
 N    1.179790060969    1.483358079681    3.779249351761
 H    1.983617186220    2.103318619436    3.697261329339
 N    2.708321652619   -0.296954775513    3.707737208868
 H    3.362857857951    0.234848448887    4.275377985598
 H    2.787126740010   -1.297654919448    3.869320546857
 C   -0.079483681348    2.169391783212    3.792203138438
 O   -0.107064050453    3.397564867989    3.788115010010
 C   -1.152268807324    1.195698393938    3.798404336378
 N   -2.523342109093    1.382029439251    3.798329151662
 C   -3.016865603604    0.143426425206    3.787999051997
 H   -4.074363516872   -0.110720196626    3.785052407571
 H   -2.156253779352   -1.831567789890    3.773297509172
CS    0.358083378089   -0.817222360851   -4.301713815387
