17

 N   -2.030842666519   -0.824702913685    3.828760291302
 C   -0.820654599675   -0.169496710009    3.832721915270
 N    0.412757814628   -0.768174404471    3.844760200175
 C    1.383181014684    0.122001737140    3.832887743202
 N    1.180104177271    1.483639870654    3.826052582860
 H    1.983931302522    2.103600410409    3.744064560438
 N    2.708635768921   -0.296672984540    3.754540439967
 H    3.363171974253    0.235130239860    4.322181216697
 H    2.787440856312   -1.297373128475    3.916123777956
 C   -0.079169565046    2.169673574185    3.839006369537
 O   -0.106749934151    3.397846658962    3.834918241109
 C   -1.151954691022    1.195980184911    3.845207567477
 N   -2.523027992791    1.382311230224    3.845132382761
 C   -3.016551487302    0.143708216179    3.834802283096
 H   -4.074049400570   -0.110438405653    3.831855638670
 H   -2.155939663050   -1.831285998917    3.820100740271
CS    0.357726379326   -0.817542621303   -4.354906519900
