17

 N   -2.029586201313   -0.823575749794    4.015973215695
 C   -0.819398134469   -0.168369546118    4.019934839663
 N    0.414014279834   -0.767047240580    4.031973124568
 C    1.384437479890    0.123128901031    4.020100667595
 N    1.181360642477    1.484767034545    4.013265507253
 H    1.985187767728    2.104727574300    3.931277484831
 N    2.709892234127   -0.295545820649    3.941753364360
 H    3.364428439459    0.236257403751    4.509394141090
 H    2.788697321518   -1.296245964584    4.103336702349
 C   -0.077913099840    2.170800738076    4.026219293930
 O   -0.105493468945    3.398973822853    4.022131165502
 C   -1.150698225816    1.197107348802    4.032420491870
 N   -2.521771527585    1.383438394115    4.032345307154
 C   -3.015295022096    0.144835380070    4.022015207489
 H   -4.072792935364   -0.109311241762    4.019068563063
 H   -2.154683197844   -1.830158835026    4.007313664664
CS    0.356298384274   -0.818823663111   -4.567677337950
