17

 N   -2.029272085011   -0.823293958821    4.062776446793
 C   -0.819084018167   -0.168087755145    4.066738070761
 N    0.414328396136   -0.766765449607    4.078776355666
 C    1.384751596192    0.123410692004    4.066903898693
 N    1.181674758779    1.485048825518    4.060068738351
 H    1.985501884030    2.105009365273    3.978080715929
 N    2.710206350429   -0.295264029676    3.988556595458
 H    3.364742555761    0.236539194724    4.556197372188
 H    2.789011437820   -1.295964173611    4.150139933447
 C   -0.077598983538    2.171082529049    4.073022525028
 O   -0.105179352643    3.399255613826    4.068934396600
 C   -1.150384109514    1.197389139775    4.079223722968
 N   -2.521457411283    1.383720185088    4.079148538252
 C   -3.014980905794    0.145117171043    4.068818438587
 H   -4.072478819062   -0.109029450789    4.065871794161
 H   -2.154369081542   -1.829877044053    4.054116895762
CS    0.355941385511   -0.819143923563   -4.620870042462
