17

 N   -2.028329736107   -0.822448585903    4.203186140087
 C   -0.818141669263   -0.167242382227    4.207147764055
 N    0.415270745040   -0.765920076689    4.219186048960
 C    1.385693945096    0.124256064922    4.207313591987
 N    1.182617107683    1.485894198436    4.200478431645
 H    1.986444232934    2.105854738191    4.118490409223
 N    2.711148699333   -0.294418656758    4.128966288752
 H    3.365684904665    0.237384567642    4.696607065482
 H    2.789953786724   -1.295118800693    4.290549626741
 C   -0.076656634634    2.171927901967    4.213432218322
 O   -0.104237003739    3.400100986744    4.209344089894
 C   -1.149441760610    1.198234512693    4.219633416262
 N   -2.520515062379    1.384565558006    4.219558231546
 C   -3.014038556890    0.145962543961    4.209228131881
 H   -4.071536470158   -0.108184077871    4.206281487455
 H   -2.153426732638   -1.829031671135    4.194526589056
CS    0.354870389221   -0.820104704919   -4.780448155999
