17

 N   -2.027387387202   -0.821603212985    4.343595833382
 C   -0.817199320358   -0.166397009309    4.347557457350
 N    0.416213093945   -0.765074703771    4.359595742255
 C    1.386636294001    0.125101437840    4.347723285282
 N    1.183559456588    1.486739571354    4.340888124940
 H    1.987386581839    2.106700111109    4.258900102518
 N    2.712091048238   -0.293573283840    4.269375982047
 H    3.366627253570    0.238229940560    4.837016758777
 H    2.790896135629   -1.294273427775    4.430959320036
 C   -0.075714285729    2.172773274885    4.353841911617
 O   -0.103294654834    3.400946359662    4.349753783189
 C   -1.148499411705    1.199079885611    4.360043109557
 N   -2.519572713474    1.385410930924    4.359967924841
 C   -3.013096207985    0.146807916879    4.349637825176
 H   -4.070594121253   -0.107338704953    4.346691180750
 H   -2.152484383733   -1.828186298217    4.334936282351
CS    0.353799392932   -0.821065486275   -4.940026269537
