17

 N   -2.027073270900   -0.821321422012    4.390399064480
 C   -0.816885204056   -0.166115218336    4.394360688448
 N    0.416527210247   -0.764792912798    4.406398973353
 C    1.386950410303    0.125383228813    4.394526516380
 N    1.183873572890    1.487021362327    4.387691356038
 H    1.987700698141    2.106981902082    4.305703333616
 N    2.712405164540   -0.293291492867    4.316179213145
 H    3.366941369872    0.238511731533    4.883819989875
 H    2.791210251931   -1.293991636802    4.477762551134
 C   -0.075400169427    2.173055065858    4.400645142715
 O   -0.102980538532    3.401228150635    4.396557014287
 C   -1.148185295403    1.199361676584    4.406846340655
 N   -2.519258597172    1.385692721897    4.406771155939
 C   -3.012782091683    0.147089707852    4.396441056274
 H   -4.070280004951   -0.107056913980    4.393494411848
 H   -2.152170267431   -1.827904507244    4.381739513449
CS    0.353442394169   -0.821385746727   -4.993218974049
