17

 N   -2.026759154599   -0.821039631039    4.437202295579
 C   -0.816571087755   -0.165833427363    4.441163919547
 N    0.416841326548   -0.764511121825    4.453202204452
 C    1.387264526604    0.125665019786    4.441329747479
 N    1.184187689191    1.487303153300    4.434494587137
 H    1.988014814442    2.107263693055    4.352506564715
 N    2.712719280841   -0.293009701894    4.362982444244
 H    3.367255486173    0.238793522506    4.930623220974
 H    2.791524368232   -1.293709845829    4.524565782233
 C   -0.075086053126    2.173336856831    4.447448373814
 O   -0.102666422231    3.401509941608    4.443360245386
 C   -1.147871179102    1.199643467557    4.453649571754
 N   -2.518944480871    1.385974512870    4.453574387038
 C   -3.012467975382    0.147371498825    4.443244287373
 H   -4.069965888650   -0.106775123007    4.440297642947
 H   -2.151856151130   -1.827622716271    4.428542744548
CS    0.353085395406   -0.821706007179   -5.046411678561
