17

 N   -2.026445038297   -0.820757840066    4.484005526677
 C   -0.816256971453   -0.165551636390    4.487967150645
 N    0.417155442850   -0.764229330852    4.500005435550
 C    1.387578642906    0.125946810759    4.488132978577
 N    1.184501805493    1.487584944273    4.481297818235
 H    1.988328930744    2.107545484028    4.399309795813
 N    2.713033397143   -0.292727910921    4.409785675342
 H    3.367569602475    0.239075313479    4.977426452072
 H    2.791838484534   -1.293428054856    4.571369013331
 C   -0.074771936824    2.173618647804    4.494251604912
 O   -0.102352305929    3.401791732581    4.490163476484
 C   -1.147557062800    1.199925258530    4.500452802852
 N   -2.518630364569    1.386256303843    4.500377618136
 C   -3.012153859080    0.147653289798    4.490047518471
 H   -4.069651772348   -0.106493332034    4.487100874045
 H   -2.151542034828   -1.827340925298    4.475345975646
CS    0.352728396643   -0.822026267631   -5.099604383074
