14

 H    1.495360655003    5.559562668031    0.000000000000
 H    2.961160655003    5.033492668031    0.900780000000
 H    2.961160655003    5.033492668031   -0.900780000000
 C    2.357490655003    4.886372668031    0.000000000000
 S    1.564460655003    3.201162668031    0.000000000000
 H    2.722180655003    2.544402668031    0.000000000000
CS   -0.165429344997   -0.338497331969    3.050810000000
CS   -0.165429344997   -0.338497331969   -3.050810000000
 S   -0.648422925137   -1.326787371150    0.000000000000
 H   -1.806144265064   -0.670036154952    0.000000000000
 C   -1.441451274588   -3.011998867481    0.000000000000
 H   -0.579321552922   -3.685197509726    0.000000000000
 H   -2.045120635527   -3.159124577589   -0.900781844949
 H   -2.045120635527   -3.159124577589    0.900781844949
