14

 H    1.507011586896    5.583402529284    0.000000000000
 H    2.972811586896    5.057332529284    0.900780000000
 H    2.972811586896    5.057332529284   -0.900780000000
 C    2.369141586896    4.910212529284    0.000000000000
 S    1.576111586896    3.225002529284    0.000000000000
 H    2.733831586896    2.568242529284    0.000000000000
CS   -0.153778413104   -0.314657470716    3.050810000000
CS   -0.153778413104   -0.314657470716   -3.050810000000
 S   -0.724589007815   -1.482636607930    0.000000000000
 H   -1.882310347742   -0.825885391732    0.000000000000
 C   -1.517617357267   -3.167848104261    0.000000000000
 H   -0.655487635601   -3.841046746506    0.000000000000
 H   -2.121286718205   -3.314973814369   -0.900781844949
 H   -2.121286718205   -3.314973814369    0.900781844949
