14

 H    1.512837052842    5.595322459910    0.000000000000
 H    2.978637052842    5.069252459910    0.900780000000
 H    2.978637052842    5.069252459910   -0.900780000000
 C    2.374967052842    4.922132459910    0.000000000000
 S    1.581937052842    3.236922459910    0.000000000000
 H    2.739657052842    2.580162459910    0.000000000000
CS   -0.147952947158   -0.302737540090    3.050810000000
CS   -0.147952947158   -0.302737540090   -3.050810000000
 S   -0.762672049154   -1.560561226320    0.000000000000
 H   -1.920393389081   -0.903810010122    0.000000000000
 C   -1.555700398606   -3.245772722651    0.000000000000
 H   -0.693570676940   -3.918971364896    0.000000000000
 H   -2.159369759544   -3.392898432759   -0.900781844949
 H   -2.159369759544   -3.392898432759    0.900781844949
