14

 H    1.524487984734    5.619162321163    0.000000000000
 H    2.990287984734    5.093092321163    0.900780000000
 H    2.990287984734    5.093092321163   -0.900780000000
 C    2.386617984734    4.945972321163    0.000000000000
 S    1.593587984734    3.260762321163    0.000000000000
 H    2.751307984734    2.604002321163    0.000000000000
CS   -0.136302015266   -0.278897678837    3.050810000000
CS   -0.136302015266   -0.278897678837   -3.050810000000
 S   -0.838838131833   -1.716410463100    0.000000000000
 H   -1.996559471760   -1.059659246902    0.000000000000
 C   -1.631866481284   -3.401621959431    0.000000000000
 H   -0.769736759619   -4.074820601676    0.000000000000
 H   -2.235535842223   -3.548747669539   -0.900781844949
 H   -2.235535842223   -3.548747669539    0.900781844949
