14

 H    1.530313450681    5.631082251789    0.000000000000
 H    2.996113450681    5.105012251789    0.900780000000
 H    2.996113450681    5.105012251789   -0.900780000000
 C    2.392443450681    4.957892251789    0.000000000000
 S    1.599413450681    3.272682251789    0.000000000000
 H    2.757133450681    2.615922251789    0.000000000000
CS   -0.130476549319   -0.266977748211    3.050810000000
CS   -0.130476549319   -0.266977748211   -3.050810000000
 S   -0.876921173172   -1.794335081490    0.000000000000
 H   -2.034642513099   -1.137583865292    0.000000000000
 C   -1.669949522624   -3.479546577821    0.000000000000
 H   -0.807819800958   -4.152745220066    0.000000000000
 H   -2.273618883562   -3.626672287929   -0.900781844949
 H   -2.273618883562   -3.626672287929    0.900781844949
