14

 H    2.013827124218    6.620436493777    0.000000000000
 H    3.479627124218    6.094366493777    0.900780000000
 H    3.479627124218    6.094366493777   -0.900780000000
 C    2.875957124218    5.947246493777    0.000000000000
 S    2.082927124218    4.262036493777    0.000000000000
 H    3.240647124218    3.605276493777    0.000000000000
CS    0.353037124218    0.722376493777    3.050810000000
CS    0.353037124218    0.722376493777   -3.050810000000
 S   -4.037813604327   -8.262078407865    0.000000000000
 H   -5.195534944254   -7.605327191667    0.000000000000
 C   -4.830841953779   -9.947289904196    0.000000000000
 H   -3.968712232113  -10.620488546441    0.000000000000
 H   -5.434511314717  -10.094415614304   -0.900781844949
 H   -5.434511314717  -10.094415614304    0.900781844949
