14

 H    1.547789848519    5.666842043668    0.000000000000
 H    3.013589848519    5.140772043668    0.900780000000
 H    3.013589848519    5.140772043668   -0.900780000000
 C    2.409919848519    4.993652043668    0.000000000000
 S    1.616889848519    3.308442043668    0.000000000000
 H    2.774609848519    2.651682043668    0.000000000000
CS   -0.113000151481   -0.231217956332    3.050810000000
CS   -0.113000151481   -0.231217956332   -3.050810000000
 S   -0.991170297190   -2.028108936660    0.000000000000
 H   -2.148891637117   -1.371357720462    0.000000000000
 C   -1.784198646641   -3.713320432991    0.000000000000
 H   -0.922068924975   -4.386519075236    0.000000000000
 H   -2.387868007580   -3.860446143100   -0.900781844949
 H   -2.387868007580   -3.860446143100    0.900781844949
