14

 H    1.553615314466    5.678761974295    0.000000000000
 H    3.019415314466    5.152691974295    0.900780000000
 H    3.019415314466    5.152691974295   -0.900780000000
 C    2.415745314466    5.005571974295    0.000000000000
 S    1.622715314466    3.320361974295    0.000000000000
 H    2.780435314466    2.663601974295    0.000000000000
CS   -0.107174685534   -0.219298025705    3.050810000000
CS   -0.107174685534   -0.219298025705   -3.050810000000
 S   -1.029253338529   -2.106033555050    0.000000000000
 H   -2.186974678456   -1.449282338852    0.000000000000
 C   -1.822281687980   -3.791245051381    0.000000000000
 H   -0.960151966315   -4.464443693626    0.000000000000
 H   -2.425951048919   -3.938370761490   -0.900781844949
 H   -2.425951048919   -3.938370761490    0.900781844949
