14

 H    1.588568110143    5.750281558053    0.000000000000
 H    3.054368110143    5.224211558053    0.900780000000
 H    3.054368110143    5.224211558053   -0.900780000000
 C    2.450698110143    5.077091558053    0.000000000000
 S    1.657668110143    3.391881558053    0.000000000000
 H    2.815388110143    2.735121558053    0.000000000000
CS   -0.072221889857   -0.147778441947    3.050810000000
CS   -0.072221889857   -0.147778441947   -3.050810000000
 S   -1.257751586564   -2.573581265391    0.000000000000
 H   -2.415472926491   -1.916830049193    0.000000000000
 C   -2.050779936016   -4.258792761722    0.000000000000
 H   -1.188650214350   -4.931991403967    0.000000000000
 H   -2.654449296954   -4.405918471830   -0.900781844949
 H   -2.654449296954   -4.405918471830    0.900781844949
