14

 H    1.623520905820    5.821801141811    0.000000000000
 H    3.089320905820    5.295731141811    0.900780000000
 H    3.089320905820    5.295731141811   -0.900780000000
 C    2.485650905820    5.148611141811    0.000000000000
 S    1.692620905820    3.463401141811    0.000000000000
 H    2.850340905820    2.806641141811    0.000000000000
CS   -0.037269094180   -0.076258858189    3.050810000000
CS   -0.037269094180   -0.076258858189   -3.050810000000
 S   -1.486249834599   -3.041128975731    0.000000000000
 H   -2.643971174527   -2.384377759533    0.000000000000
 C   -2.279278184051   -4.726340472062    0.000000000000
 H   -1.417148462385   -5.399539114307    0.000000000000
 H   -2.882947544989   -4.873466182170   -0.900781844949
 H   -2.882947544989   -4.873466182170    0.900781844949
