14

 H    1.670124633390    5.917160586822    0.000000000000
 H    3.135924633390    5.391090586822    0.900780000000
 H    3.135924633390    5.391090586822   -0.900780000000
 C    2.532254633390    5.243970586822    0.000000000000
 S    1.739224633390    3.558760586822    0.000000000000
 H    2.896944633390    2.902000586822    0.000000000000
CS    0.009334633390    0.019100586822    3.050810000000
CS    0.009334633390    0.019100586822   -3.050810000000
 S   -1.790914165313   -3.664525922851    0.000000000000
 H   -2.948635505240   -3.007774706654    0.000000000000
 C   -2.583942514765   -5.349737419182    0.000000000000
 H   -1.721812793099   -6.022936061427    0.000000000000
 H   -3.187611875703   -5.496863129291   -0.900781844949
 H   -3.187611875703   -5.496863129291    0.900781844949
