14

 H    1.675950099336    5.929080517448    0.000000000000
 H    3.141750099336    5.403010517448    0.900780000000
 H    3.141750099336    5.403010517448   -0.900780000000
 C    2.538080099336    5.255890517448    0.000000000000
 S    1.745050099336    3.570680517448    0.000000000000
 H    2.902770099336    2.913920517448    0.000000000000
CS    0.015160099336    0.031020517448    3.050810000000
CS    0.015160099336    0.031020517448   -3.050810000000
 S   -1.828997206652   -3.742450541241    0.000000000000
 H   -2.986718546580   -3.085699325044    0.000000000000
 C   -2.622025556104   -5.427662037572    0.000000000000
 H   -1.759895834438   -6.100860679817    0.000000000000
 H   -3.225694917042   -5.574787747681   -0.900781844949
 H   -3.225694917042   -5.574787747681    0.900781844949
