14

 H    1.681775565283    5.941000448074    0.000000000000
 H    3.147575565283    5.414930448074    0.900780000000
 H    3.147575565283    5.414930448074   -0.900780000000
 C    2.543905565283    5.267810448074    0.000000000000
 S    1.750875565283    3.582600448074    0.000000000000
 H    2.908595565283    2.925840448074    0.000000000000
CS    0.020985565283    0.042940448074    3.050810000000
CS    0.020985565283    0.042940448074   -3.050810000000
 S   -1.867080247992   -3.820375159632    0.000000000000
 H   -3.024801587919   -3.163623943434    0.000000000000
 C   -2.660108597443   -5.505586655963    0.000000000000
 H   -1.797978875777   -6.178785298207    0.000000000000
 H   -3.263777958382   -5.652712366071   -0.900781844949
 H   -3.263777958382   -5.652712366071    0.900781844949
