14

 H    1.687601031229    5.952920378701    0.000000000000
 H    3.153401031229    5.426850378701    0.900780000000
 H    3.153401031229    5.426850378701   -0.900780000000
 C    2.549731031229    5.279730378701    0.000000000000
 S    1.756701031229    3.594520378701    0.000000000000
 H    2.914421031229    2.937760378701    0.000000000000
CS    0.026811031229    0.054860378701    3.050810000000
CS    0.026811031229    0.054860378701   -3.050810000000
 S   -1.905163289331   -3.898299778022    0.000000000000
 H   -3.062884629258   -3.241548561824    0.000000000000
 C   -2.698191638782   -5.583511274353    0.000000000000
 H   -1.836061917117   -6.256709916598    0.000000000000
 H   -3.301860999721   -5.730636984461   -0.900781844949
 H   -3.301860999721   -5.730636984461    0.900781844949
