14

 H    1.693426497175    5.964840309327    0.000000000000
 H    3.159226497175    5.438770309327    0.900780000000
 H    3.159226497175    5.438770309327   -0.900780000000
 C    2.555556497175    5.291650309327    0.000000000000
 S    1.762526497175    3.606440309327    0.000000000000
 H    2.920246497175    2.949680309327    0.000000000000
CS    0.032636497175    0.066780309327    3.050810000000
CS    0.032636497175    0.066780309327   -3.050810000000
 S   -1.943246330670   -3.976224396412    0.000000000000
 H   -3.100967670597   -3.319473180214    0.000000000000
 C   -2.736274680122   -5.661435892743    0.000000000000
 H   -1.874144958456   -6.334634534988    0.000000000000
 H   -3.339944041060   -5.808561602851   -0.900781844949
 H   -3.339944041060   -5.808561602851    0.900781844949
