14

 H    1.705077429068    5.988680170580    0.000000000000
 H    3.170877429068    5.462610170580    0.900780000000
 H    3.170877429068    5.462610170580   -0.900780000000
 C    2.567207429068    5.315490170580    0.000000000000
 S    1.774177429068    3.630280170580    0.000000000000
 H    2.931897429068    2.973520170580    0.000000000000
CS    0.044287429068    0.090620170580    3.050810000000
CS    0.044287429068    0.090620170580   -3.050810000000
 S   -2.019412413349   -4.132073633192    0.000000000000
 H   -3.177133753276   -3.475322416994    0.000000000000
 C   -2.812440762800   -5.817285129523    0.000000000000
 H   -1.950311041134   -6.490483771768    0.000000000000
 H   -3.416110123738   -5.964410839631   -0.900781844949
 H   -3.416110123738   -5.964410839631    0.900781844949
