14

 H    1.710902895014    6.000600101206    0.000000000000
 H    3.176702895014    5.474530101206    0.900780000000
 H    3.176702895014    5.474530101206   -0.900780000000
 C    2.573032895014    5.327410101206    0.000000000000
 S    1.780002895014    3.642200101206    0.000000000000
 H    2.937722895014    2.985440101206    0.000000000000
CS    0.050112895014    0.102540101206    3.050810000000
CS    0.050112895014    0.102540101206   -3.050810000000
 S   -2.057495454688   -4.209998251582    0.000000000000
 H   -3.215216794615   -3.553247035384    0.000000000000
 C   -2.850523804139   -5.895209747913    0.000000000000
 H   -1.988394082474   -6.568408390158    0.000000000000
 H   -3.454193165078   -6.042335458021   -0.900781844949
 H   -3.454193165078   -6.042335458021    0.900781844949
