14

 H    1.728379292852    6.036359893085    0.000000000000
 H    3.194179292852    5.510289893085    0.900780000000
 H    3.194179292852    5.510289893085   -0.900780000000
 C    2.590509292852    5.363169893085    0.000000000000
 S    1.797479292852    3.677959893085    0.000000000000
 H    2.955199292852    3.021199893085    0.000000000000
CS    0.067589292852    0.138299893085    3.050810000000
CS    0.067589292852    0.138299893085   -3.050810000000
 S   -2.171744578705   -4.443772106752    0.000000000000
 H   -3.329465918632   -3.787020890554    0.000000000000
 C   -2.964772928157   -6.128983603083    0.000000000000
 H   -2.102643206491   -6.802182245328    0.000000000000
 H   -3.568442289095   -6.276109313191   -0.900781844949
 H   -3.568442289095   -6.276109313191    0.900781844949
