14

 H    1.734204758799    6.048279823712    0.000000000000
 H    3.200004758799    5.522209823712    0.900780000000
 H    3.200004758799    5.522209823712   -0.900780000000
 C    2.596334758799    5.375089823712    0.000000000000
 S    1.803304758799    3.689879823712    0.000000000000
 H    2.961024758799    3.033119823712    0.000000000000
CS    0.073414758799    0.150219823712    3.050810000000
CS    0.073414758799    0.150219823712   -3.050810000000
 S   -2.209827620045   -4.521696725142    0.000000000000
 H   -3.367548959972   -3.864945508944    0.000000000000
 C   -3.002855969496   -6.206908221473    0.000000000000
 H   -2.140726247830   -6.880106863718    0.000000000000
 H   -3.606525330435   -6.354033931581   -0.900781844949
 H   -3.606525330435   -6.354033931581    0.900781844949
