14

 H    1.740030224745    6.060199754338    0.000000000000
 H    3.205830224745    5.534129754338    0.900780000000
 H    3.205830224745    5.534129754338   -0.900780000000
 C    2.602160224745    5.387009754338    0.000000000000
 S    1.809130224745    3.701799754338    0.000000000000
 H    2.966850224745    3.045039754338    0.000000000000
CS    0.079240224745    0.162139754338    3.050810000000
CS    0.079240224745    0.162139754338   -3.050810000000
 S   -2.247910661384   -4.599621343532    0.000000000000
 H   -3.405632001311   -3.942870127334    0.000000000000
 C   -3.040939010835   -6.284832839863    0.000000000000
 H   -2.178809289170   -6.958031482108    0.000000000000
 H   -3.644608371774   -6.431958549972   -0.900781844949
 H   -3.644608371774   -6.431958549972    0.900781844949
