14

 H    1.745855690691    6.072119684964    0.000000000000
 H    3.211655690691    5.546049684964    0.900780000000
 H    3.211655690691    5.546049684964   -0.900780000000
 C    2.607985690691    5.398929684964    0.000000000000
 S    1.814955690691    3.713719684964    0.000000000000
 H    2.972675690691    3.056959684964    0.000000000000
CS    0.085065690691    0.174059684964    3.050810000000
CS    0.085065690691    0.174059684964   -3.050810000000
 S   -2.285993702723   -4.677545961922    0.000000000000
 H   -3.443715042650   -4.020794745724    0.000000000000
 C   -3.079022052175   -6.362757458253    0.000000000000
 H   -2.216892330509   -7.035956100498    0.000000000000
 H   -3.682691413113   -6.509883168362   -0.900781844949
 H   -3.682691413113   -6.509883168362    0.900781844949
