14

 H    1.774983020422    6.131719338096    0.000000000000
 H    3.240783020422    5.605649338096    0.900780000000
 H    3.240783020422    5.605649338096   -0.900780000000
 C    2.637113020422    5.458529338096    0.000000000000
 S    1.844083020422    3.773319338096    0.000000000000
 H    3.001803020422    3.116559338096    0.000000000000
CS    0.114193020422    0.233659338096    3.050810000000
CS    0.114193020422    0.233659338096   -3.050810000000
 S   -2.476408909419   -5.067169053872    0.000000000000
 H   -3.634130249346   -4.410417837675    0.000000000000
 C   -3.269437258871   -6.752380550203    0.000000000000
 H   -2.407307537205   -7.425579192448    0.000000000000
 H   -3.873106619809   -6.899506260312   -0.900781844949
 H   -3.873106619809   -6.899506260312    0.900781844949
