14

 H    1.786633952315    6.155559199349    0.000000000000
 H    3.252433952315    5.629489199349    0.900780000000
 H    3.252433952315    5.629489199349   -0.900780000000
 C    2.648763952315    5.482369199349    0.000000000000
 S    1.855733952315    3.797159199349    0.000000000000
 H    3.013453952315    3.140399199349    0.000000000000
CS    0.125843952315    0.257499199349    3.050810000000
CS    0.125843952315    0.257499199349   -3.050810000000
 S   -2.552574992098   -5.223018290653    0.000000000000
 H   -3.710296332025   -4.566267074455    0.000000000000
 C   -3.345603341549   -6.908229786984    0.000000000000
 H   -2.483473619883   -7.581428429229    0.000000000000
 H   -3.949272702487   -7.055355497092   -0.900781844949
 H   -3.949272702487   -7.055355497092    0.900781844949
