14

 H    1.839063145831    6.262838574986    0.000000000000
 H    3.304863145831    5.736768574986    0.900780000000
 H    3.304863145831    5.736768574986   -0.900780000000
 C    2.701193145831    5.589648574986    0.000000000000
 S    1.908163145831    3.904438574986    0.000000000000
 H    3.065883145831    3.247678574986    0.000000000000
CS    0.178273145831    0.364778574986    3.050810000000
CS    0.178273145831    0.364778574986   -3.050810000000
 S   -2.895322364151   -5.924339856163    0.000000000000
 H   -4.053043704078   -5.267588639965    0.000000000000
 C   -3.688350713602   -7.609551352494    0.000000000000
 H   -2.826220991936   -8.282749994739    0.000000000000
 H   -4.292020074540   -7.756677062603   -0.900781844949
 H   -4.292020074540   -7.756677062603    0.900781844949
