14

 H    1.844888611777    6.274758505613    0.000000000000
 H    3.310688611777    5.748688505613    0.900780000000
 H    3.310688611777    5.748688505613   -0.900780000000
 C    2.707018611777    5.601568505613    0.000000000000
 S    1.913988611777    3.916358505613    0.000000000000
 H    3.071708611777    3.259598505613    0.000000000000
CS    0.184098611777    0.376698505613    3.050810000000
CS    0.184098611777    0.376698505613   -3.050810000000
 S   -2.933405405490   -6.002264474553    0.000000000000
 H   -4.091126745417   -5.345513258355    0.000000000000
 C   -3.726433754941   -7.687475970884    0.000000000000
 H   -2.864304033276   -8.360674613129    0.000000000000
 H   -4.330103115880   -7.834601680993   -0.900781844949
 H   -4.330103115880   -7.834601680993    0.900781844949
