14

 H    1.862365009616    6.310518297492    0.000000000000
 H    3.328165009616    5.784448297492    0.900780000000
 H    3.328165009616    5.784448297492   -0.900780000000
 C    2.724495009616    5.637328297492    0.000000000000
 S    1.931465009616    3.952118297492    0.000000000000
 H    3.089185009616    3.295358297492    0.000000000000
CS    0.201575009616    0.412458297492    3.050810000000
CS    0.201575009616    0.412458297492   -3.050810000000
 S   -3.047654529507   -6.236038329723    0.000000000000
 H   -4.205375869435   -5.579287113525    0.000000000000
 C   -3.840682878959   -7.921249826054    0.000000000000
 H   -2.978553157293   -8.594448468299    0.000000000000
 H   -4.444352239897   -8.068375536163   -0.900781844949
 H   -4.444352239897   -8.068375536163    0.900781844949
