14

 H    1.879841407454    6.346278089371    0.000000000000
 H    3.345641407454    5.820208089371    0.900780000000
 H    3.345641407454    5.820208089371   -0.900780000000
 C    2.741971407454    5.673088089371    0.000000000000
 S    1.948941407454    3.987878089371    0.000000000000
 H    3.106661407454    3.331118089371    0.000000000000
CS    0.219051407454    0.448218089371    3.050810000000
CS    0.219051407454    0.448218089371   -3.050810000000
 S   -3.161903653525   -6.469812184894    0.000000000000
 H   -4.319624993452   -5.813060968696    0.000000000000
 C   -3.954932002977   -8.155023681224    0.000000000000
 H   -3.092802281311   -8.828222323469    0.000000000000
 H   -4.558601363915   -8.302149391333   -0.900781844949
 H   -4.558601363915   -8.302149391333    0.900781844949
