14

 H    1.885666873401    6.358198019997    0.000000000000
 H    3.351466873401    5.832128019997    0.900780000000
 H    3.351466873401    5.832128019997   -0.900780000000
 C    2.747796873401    5.685008019997    0.000000000000
 S    1.954766873401    3.999798019997    0.000000000000
 H    3.112486873401    3.343038019997    0.000000000000
CS    0.224876873401    0.460138019997    3.050810000000
CS    0.224876873401    0.460138019997   -3.050810000000
 S   -3.199986694864   -6.547736803284    0.000000000000
 H   -4.357708034791   -5.890985587086    0.000000000000
 C   -3.993015044316   -8.232948299615    0.000000000000
 H   -3.130885322650   -8.906146941860    0.000000000000
 H   -4.596684405254   -8.380074009723   -0.900781844949
 H   -4.596684405254   -8.380074009723    0.900781844949
