14

 H    1.908968737186    6.405877742503    0.000000000000
 H    3.374768737186    5.879807742503    0.900780000000
 H    3.374768737186    5.879807742503   -0.900780000000
 C    2.771098737186    5.732687742503    0.000000000000
 S    1.978068737186    4.047477742503    0.000000000000
 H    3.135788737186    3.390717742503    0.000000000000
CS    0.248178737186    0.507817742503    3.050810000000
CS    0.248178737186    0.507817742503   -3.050810000000
 S   -3.352318860221   -6.859435276844    0.000000000000
 H   -4.510040200148   -6.202684060646    0.000000000000
 C   -4.145347209673   -8.544646773175    0.000000000000
 H   -3.283217488007   -9.217845415420    0.000000000000
 H   -4.749016570611   -8.691772483283   -0.900781844949
 H   -4.749016570611   -8.691772483283    0.900781844949
