14

 H    1.914794203132    6.417797673129    0.000000000000
 H    3.380594203132    5.891727673129    0.900780000000
 H    3.380594203132    5.891727673129   -0.900780000000
 C    2.776924203132    5.744607673129    0.000000000000
 S    1.983894203132    4.059397673129    0.000000000000
 H    3.141614203132    3.402637673129    0.000000000000
CS    0.254004203132    0.519737673129    3.050810000000
CS    0.254004203132    0.519737673129   -3.050810000000
 S   -3.390401901560   -6.937359895234    0.000000000000
 H   -4.548123241487   -6.280608679036    0.000000000000
 C   -4.183430251012   -8.622571391565    0.000000000000
 H   -3.321300529346   -9.295770033810    0.000000000000
 H   -4.787099611950   -8.769697101673   -0.900781844949
 H   -4.787099611950   -8.769697101673    0.900781844949
