14

 H    1.932270600971    6.453557465008    0.000000000000
 H    3.398070600971    5.927487465008    0.900780000000
 H    3.398070600971    5.927487465008   -0.900780000000
 C    2.794400600971    5.780367465008    0.000000000000
 S    2.001370600971    4.095157465008    0.000000000000
 H    3.159090600971    3.438397465008    0.000000000000
CS    0.271480600971    0.555497465008    3.050810000000
CS    0.271480600971    0.555497465008   -3.050810000000
 S   -3.504651025578   -7.171133750404    0.000000000000
 H   -4.662372365505   -6.514382534206    0.000000000000
 C   -4.297679375030   -8.856345246735    0.000000000000
 H   -3.435549653364   -9.529543888980    0.000000000000
 H   -4.901348735968   -9.003470956843   -0.900781844949
 H   -4.901348735968   -9.003470956843    0.900781844949
