14

 H    1.938096066917    6.465477395634    0.000000000000
 H    3.403896066917    5.939407395634    0.900780000000
 H    3.403896066917    5.939407395634   -0.900780000000
 C    2.800226066917    5.792287395634    0.000000000000
 S    2.007196066917    4.107077395634    0.000000000000
 H    3.164916066917    3.450317395634    0.000000000000
CS    0.277306066917    0.567417395634    3.050810000000
CS    0.277306066917    0.567417395634   -3.050810000000
 S   -3.542734066917   -7.249058368794    0.000000000000
 H   -4.700455406844   -6.592307152596    0.000000000000
 C   -4.335762416369   -8.934269865125    0.000000000000
 H   -3.473632694703   -9.607468507370    0.000000000000
 H   -4.939431777307   -9.081395575234   -0.900781844949
 H   -4.939431777307   -9.081395575234    0.900781844949
