14

 H    1.961397930702    6.513157118140    0.000000000000
 H    3.427197930702    5.987087118140    0.900780000000
 H    3.427197930702    5.987087118140   -0.900780000000
 C    2.823527930702    5.839967118140    0.000000000000
 S    2.030497930702    4.154757118140    0.000000000000
 H    3.188217930702    3.497997118140    0.000000000000
CS    0.300607930702    0.615097118140    3.050810000000
CS    0.300607930702    0.615097118140   -3.050810000000
 S   -3.695066232274   -7.560756842354    0.000000000000
 H   -4.852787572201   -6.904005626156    0.000000000000
 C   -4.488094581726   -9.245968338685    0.000000000000
 H   -3.625964860060   -9.919166980930    0.000000000000
 H   -5.091763942664   -9.393094048794   -0.900781844949
 H   -5.091763942664   -9.393094048794    0.900781844949
