14

 H    1.973048862594    6.536996979393    0.000000000000
 H    3.438848862594    6.010926979393    0.900780000000
 H    3.438848862594    6.010926979393   -0.900780000000
 C    2.835178862594    5.863806979393    0.000000000000
 S    2.042148862594    4.178596979393    0.000000000000
 H    3.199868862594    3.521836979393    0.000000000000
CS    0.312258862594    0.638936979393    3.050810000000
CS    0.312258862594    0.638936979393   -3.050810000000
 S   -3.771232314953   -7.716606079134    0.000000000000
 H   -4.928953654880   -7.059854862937    0.000000000000
 C   -4.564260664404   -9.401817575465    0.000000000000
 H   -3.702130942738  -10.075016217710    0.000000000000
 H   -5.167930025342   -9.548943285574   -0.900781844949
 H   -5.167930025342   -9.548943285574    0.900781844949
