11

 H   -2.360081569676    0.353436522783    0.477640181488
 H   -2.477115675066   -0.396662148941   -1.149428073566
 H   -2.360201940089    1.389236428742   -1.005941334853
 C   -2.040160207167    0.431355012215   -0.571360791241
 S   -0.231259979149    0.243330549098   -0.702780552749
 S    0.259237536168    1.940752943282    0.482278449724
 C    2.068137761380    1.752589798879    0.351057363866
 H    2.388060840219    0.794697350865    0.785701280907
 H    2.505093244830    2.580592932734    0.929144767233
 H    2.388177848622    1.830452807139   -0.697911396841
CS   -0.009892902065   -0.772278568460    0.077946504242
