11

 H   -2.380030269199    0.444959080635    0.407284238434
 H   -2.497064374589   -0.305139591089   -1.219784016620
 H   -2.380150639612    1.480758986594   -1.076297277907
 C   -2.060108906690    0.522877570067   -0.641716734295
 S   -0.251208678672    0.334853106950   -0.773136495803
 S    0.239288836645    2.032275501134    0.411922506670
 C    2.048189061857    1.844112356731    0.280701420812
 H    2.368112140696    0.886219908717    0.715345337853
 H    2.485144545307    2.672115490586    0.858788824179
 H    2.368229149099    1.921975364991   -0.768267339895
CS    0.004214871809   -0.837003567155    0.127702416109
