11

 H   -2.449850717529    0.765288033117    0.161038437745
 H   -2.566884822919    0.015189361393   -1.466029817309
 H   -2.449971087942    1.801087939076   -1.322543078596
 C   -2.129929355020    0.843206522549   -0.887962534984
 S   -0.321029127002    0.655182059432   -1.019382296492
 S    0.169468388315    2.352604453616    0.165676705981
 C    1.978368613527    2.164441309213    0.034455620123
 H    2.298291692366    1.206548861199    0.469099537164
 H    2.415324096977    2.992444443068    0.612543023490
 H    2.298408700769    2.242304317473   -1.014513140584
CS    0.053592080370   -1.063541062589    0.301848107645
