11

 H   -2.489748116575    0.948333148821    0.020326551637
 H   -2.606782221965    0.198234477097   -1.606741703417
 H   -2.489868486988    1.984133054780   -1.463254964704
 C   -2.169826754066    1.026251638253   -1.028674421092
 S   -0.360926526048    0.838227175136   -1.160094182600
 S    0.129570989269    2.535649569320    0.024964819873
 C    1.938471214481    2.347486424917   -0.106256265985
 H    2.258394293320    1.389593976903    0.328387651056
 H    2.375426697931    3.175489558772    0.471831137382
 H    2.258511301723    2.425349433177   -1.155225026692
CS    0.081807628119   -1.192991059979    0.401359931381
