11

 H   -2.529645515621    1.131378264525   -0.120385334472
 H   -2.646679621011    0.381279592801   -1.747453589526
 H   -2.529765886034    2.167178170484   -1.603966850813
 C   -2.209724153112    1.209296753957   -1.169386307201
 S   -0.400823925094    1.021272290840   -1.300806068709
 S    0.089673590223    2.718694685024   -0.115747066236
 C    1.898573815435    2.530531540621   -0.246968152094
 H    2.218496894274    1.572639092607    0.187675764947
 H    2.335529298885    3.358534674476    0.331119251273
 H    2.218613902677    2.608394548881   -1.295936912801
CS    0.110023175869   -1.322441057370    0.500871755116
