11

 H   -2.539619865383    1.177139543451   -0.155563305999
 H   -2.656653970773    0.427040871727   -1.782631561053
 H   -2.539740235796    2.212939449410   -1.639144822340
 C   -2.219698502874    1.255058032883   -1.204564278728
 S   -0.410798274856    1.067033569766   -1.335984040236
 S    0.079699240461    2.764455963950   -0.150925037763
 C    1.888599465673    2.576292819547   -0.282146123621
 H    2.208522544512    1.618400371533    0.152497793420
 H    2.325554949123    3.404295953402    0.295941279746
 H    2.208639552915    2.654155827807   -1.331114884328
CS    0.117077062806   -1.354803556718    0.525749711049
