11

 H   -2.639363362998    1.634752332711   -0.507343021269
 H   -2.756397468388    0.884653660987   -2.134411276323
 H   -2.639483733411    2.670552238670   -1.990924537610
 C   -2.319442000489    1.712670822143   -1.556343993998
 S   -0.510541772471    1.524646359026   -1.687763755506
 S   -0.020044257154    3.222068753210   -0.502704753033
 C    1.788855968058    3.033905608807   -0.633925838891
 H    2.108779046897    2.076013160793   -0.199281921850
 H    2.225811451508    3.861908742662   -0.055838435524
 H    2.108896055300    3.111768617067   -1.682894599598
CS    0.187615932179   -1.678428550194    0.774529270387
