11

 H   -2.649337712759    1.680513611637   -0.542520992796
 H   -2.766371818149    0.930414939913   -2.169589247850
 H   -2.649458083172    2.716313517596   -2.026102509137
 C   -2.329416350250    1.758432101069   -1.591521965525
 S   -0.520516122232    1.570407637952   -1.722941727033
 S   -0.030018606915    3.267830032136   -0.537882724560
 C    1.778881618297    3.079666887733   -0.669103810418
 H    2.098804697136    2.121774439719   -0.234459893377
 H    2.215837101747    3.907670021588   -0.091016407051
 H    2.098921705539    3.157529895993   -1.718072571125
CS    0.194669819116   -1.710791049542    0.799407226321
