11

 H   -2.659312062521    1.726274890564   -0.577698964323
 H   -2.776346167911    0.976176218840   -2.204767219377
 H   -2.659432432934    2.762074796523   -2.061280480664
 C   -2.339390700012    1.804193379996   -1.626699937052
 S   -0.530490471994    1.616168916879   -1.758119698560
 S   -0.039992956677    3.313591311063   -0.573060696087
 C    1.768907268535    3.125428166660   -0.704281781945
 H    2.088830347374    2.167535718646   -0.269637864904
 H    2.205862751985    3.953431300515   -0.126194378578
 H    2.088947355777    3.203291174920   -1.753250542652
CS    0.201723706053   -1.743153548889    0.824285182255
