11

 H   -2.679260762043    1.817797448416   -0.648054907377
 H   -2.796294867433    1.067698776692   -2.275123162431
 H   -2.679381132456    2.853597354375   -2.131636423718
 C   -2.359339399534    1.895715937848   -1.697055880106
 S   -0.550439171516    1.707691474731   -1.828475641614
 S   -0.059941656199    3.405113868915   -0.643416639141
 C    1.748958569013    3.216950724512   -0.774637724999
 H    2.068881647852    2.259058276498   -0.339993807958
 H    2.185914052463    4.044953858367   -0.196550321632
 H    2.068998656255    3.294813732772   -1.823606485706
CS    0.215831479928   -1.807878547585    0.874041094122
