11

 H   -2.699209461566    1.909320006268   -0.718410850431
 H   -2.816243566956    1.159221334544   -2.345479105485
 H   -2.699329831979    2.945119912227   -2.201992366772
 C   -2.379288099057    1.987238495700   -1.767411823160
 S   -0.570387871039    1.799214032583   -1.898831584668
 S   -0.079890355722    3.496636426767   -0.713772582195
 C    1.729009869490    3.308473282364   -0.844993668053
 H    2.048932948329    2.350580834350   -0.410349751012
 H    2.165965352940    4.136476416219   -0.266906264686
 H    2.049049956732    3.386336290624   -1.893962428760
CS    0.229939253802   -1.872603546280    0.923797005990
