11

 H   -2.709183811328    1.955081285194   -0.753588821958
 H   -2.826217916718    1.204982613470   -2.380657077012
 H   -2.709304181741    2.990881191153   -2.237170338299
 C   -2.389262448819    2.032999774626   -1.802589794687
 S   -0.580362220801    1.844975311509   -1.934009556195
 S   -0.089864705484    3.542397705693   -0.748950553722
 C    1.719035519728    3.354234561290   -0.880171639580
 H    2.038958598567    2.396342113276   -0.445527722539
 H    2.155991003178    4.182237695145   -0.302084236213
 H    2.039075606970    3.432097569550   -1.929140400287
CS    0.236993140739   -1.904966045627    0.948674961924
