11

 H   -2.719158161089    2.000842564120   -0.788766793485
 H   -2.836192266479    1.250743892396   -2.415835048539
 H   -2.719278531502    3.036642470079   -2.272348309826
 C   -2.399236798580    2.078761053552   -1.837767766214
 S   -0.590336570562    1.890736590435   -1.969187527722
 S   -0.099839055245    3.588158984619   -0.784128525249
 C    1.709061169967    3.399995840216   -0.915349611107
 H    2.028984248806    2.442103392202   -0.480705694066
 H    2.146016653417    4.227998974071   -0.337262207740
 H    2.029101257209    3.477858848476   -1.964318371814
CS    0.244047027677   -1.937328544975    0.973552917857
