11

 H   -2.729132510851    2.046603843046   -0.823944765012
 H   -2.846166616241    1.296505171322   -2.451013020066
 H   -2.729252881264    3.082403749005   -2.307526281353
 C   -2.409211148342    2.124522332478   -1.872945737741
 S   -0.600310920324    1.936497869361   -2.004365499249
 S   -0.109813405007    3.633920263545   -0.819306496776
 C    1.699086820205    3.445757119142   -0.950527582634
 H    2.019009899044    2.487864671128   -0.515883665593
 H    2.136042303655    4.273760252997   -0.372440179267
 H    2.019126907447    3.523620127402   -1.999496343341
CS    0.251100914614   -1.969691044323    0.998430873791
