11

 H   -2.788978609420    2.321171516602   -1.035012594174
 H   -2.906012714810    1.571072844878   -2.662080849228
 H   -2.789098979833    3.356971422561   -2.518594110515
 C   -2.469057246911    2.399090006034   -2.084013566903
 S   -0.660157018893    2.211065542917   -2.215433328411
 S   -0.169659503576    3.908487937101   -1.030374325938
 C    1.639240721636    3.720324792698   -1.161595411796
 H    1.959163800475    2.762432344684   -0.726951494755
 H    2.076196205086    4.548327926553   -0.583508008429
 H    1.959280808878    3.798187800958   -2.210564172503
CS    0.293424236238   -2.163866040409    1.147698609394
