11

 H   -2.808927308943    2.412694074454   -1.105368537229
 H   -2.925961414333    1.662595402730   -2.732436792283
 H   -2.809047679356    3.448493980413   -2.588950053570
 C   -2.489005946434    2.490612563886   -2.154369509958
 S   -0.680105718416    2.302588100769   -2.285789271466
 S   -0.189608203099    4.000010494953   -1.100730268993
 C    1.619292022113    3.811847350550   -1.231951354851
 H    1.939215100952    2.853954902536   -0.797307437810
 H    2.056247505563    4.639850484405   -0.653863951484
 H    1.939332109355    3.889710358810   -2.280920115558
CS    0.307532010112   -2.228591039104    1.197454521261
