11

 H   -2.828876008466    2.504216632306   -1.175724480283
 H   -2.945910113856    1.754117960582   -2.802792735337
 H   -2.828996378879    3.540016538265   -2.659305996624
 C   -2.508954645957    2.582135121738   -2.224725453012
 S   -0.700054417939    2.394110658621   -2.356145214520
 S   -0.209556902622    4.091533052805   -1.171086212047
 C    1.599343322590    3.903369908402   -1.302307297905
 H    1.919266401429    2.945477460388   -0.867663380864
 H    2.036298806040    4.731373042257   -0.724219894538
 H    1.919383409832    3.981232916662   -2.351276058612
CS    0.321639783987   -2.293316037799    1.247210433129
