11

 H   -2.848824707989    2.595739190158   -1.246080423337
 H   -2.965858813379    1.845640518434   -2.873148678391
 H   -2.848945078402    3.631539096117   -2.729661939678
 C   -2.528903345480    2.673657679590   -2.295081396066
 S   -0.720003117462    2.485633216473   -2.426501157574
 S   -0.229505602145    4.183055610657   -1.241442155101
 C    1.579394623067    3.994892466254   -1.372663240959
 H    1.899317701906    3.037000018240   -0.938019323918
 H    2.016350106517    4.822895600109   -0.794575837592
 H    1.899434710309    4.072755474514   -2.421632001666
CS    0.335747557861   -2.358041036494    1.296966344996
