11

 H   -2.928619506081    2.961829421566   -1.527504195553
 H   -3.045653611471    2.211730749842   -3.154572450607
 H   -2.928739876494    3.997629327525   -3.011085711894
 C   -2.608698143572    3.039747910998   -2.576505168282
 S   -0.799797915554    2.851723447881   -2.707924929790
 S   -0.309300400237    4.549145842065   -1.522865927317
 C    1.499599824975    4.360982697662   -1.654087013175
 H    1.819522903814    3.403090249648   -1.219443096134
 H    1.936555308425    5.188985831517   -1.075999609808
 H    1.819639912217    4.438845705922   -2.703055773882
CS    0.392178653359   -2.616941031275    1.495989992466
