11

 H   -2.938593855842    3.007590700492   -1.562682167080
 H   -3.055627961232    2.257492028768   -3.189750422134
 H   -2.938714226255    4.043390606451   -3.046263683421
 C   -2.618672493333    3.085509189924   -2.611683139809
 S   -0.809772265315    2.897484726807   -2.743102901317
 S   -0.319274749998    4.594907120991   -1.558043898844
 C    1.489625475214    4.406743976588   -1.689264984702
 H    1.809548554053    3.448851528574   -1.254621067661
 H    1.926580958664    5.234747110443   -1.111177581335
 H    1.809665562456    4.484606984848   -2.738233745409
CS    0.399232540297   -2.649303530623    1.520867948400
