11

 H   -2.988465604650    3.236397095123   -1.738572024715
 H   -3.105499710040    2.486298423399   -3.365640279769
 H   -2.988585975063    4.272197001082   -3.222153541056
 C   -2.668544242141    3.314315584555   -2.787572997444
 S   -0.859644014123    3.126291121438   -2.918992758952
 S   -0.369146498806    4.823713515622   -1.733933756479
 C    1.439753726406    4.635550371219   -1.865154842337
 H    1.759676805245    3.677657923205   -1.430510925296
 H    1.876709209856    5.463553505074   -1.287067438970
 H    1.759793813648    4.713413379479   -2.914123603044
CS    0.434501974983   -2.811116027361    1.645257728069
