11

 H   -3.038337353457    3.465203489753   -1.914461882350
 H   -3.155371458847    2.715104818029   -3.541530137404
 H   -3.038457723870    4.501003395712   -3.398043398691
 C   -2.718415990948    3.543121979185   -2.963462855079
 S   -0.909515762930    3.355097516068   -3.094882616587
 S   -0.419018247613    5.052519910252   -1.909823614114
 C    1.389881977599    4.864356765849   -2.041044699972
 H    1.709805056438    3.906464317835   -1.606400782931
 H    1.826837461049    5.692359899704   -1.462957296605
 H    1.709922064841    4.942219774109   -3.090013460679
CS    0.469771409669   -2.972928524099    1.769647507738
