11

 H   -3.048311703218    3.510964768679   -1.949639853877
 H   -3.165345808608    2.760866096955   -3.576708108931
 H   -3.048432073631    4.546764674638   -3.433221370218
 C   -2.728390340709    3.588883258111   -2.998640826606
 S   -0.919490112691    3.400858794994   -3.130060588114
 S   -0.428992597374    5.098281189178   -1.945001585641
 C    1.379907627838    4.910118044775   -2.076222671499
 H    1.699830706677    3.952225596761   -1.641578754458
 H    1.816863111288    5.738121178630   -1.498135268132
 H    1.699947715080    4.987981053035   -3.125191432206
CS    0.476825296607   -3.005291023447    1.794525463672
