11

 H   -3.078234752503    3.648248605457   -2.055173768458
 H   -3.195268857893    2.898149933733   -3.682242023512
 H   -3.078355122916    4.684048511416   -3.538755284799
 C   -2.758313389994    3.726167094889   -3.104174741187
 S   -0.949413161976    3.538142631772   -3.235594502695
 S   -0.458915646659    5.235565025956   -2.050535500222
 C    1.349984578553    5.047401881553   -2.181756586080
 H    1.669907657392    4.089509433539   -1.747112669039
 H    1.786940062003    5.875405015408   -1.603669182713
 H    1.670024665795    5.125264889813   -3.230725346787
CS    0.497986957418   -3.102378521490    1.869159331473
