11

 H   -3.098183452026    3.739771163309   -2.125529711513
 H   -3.215217557416    2.989672491585   -3.752597966567
 H   -3.098303822439    4.775571069268   -3.609111227854
 C   -2.778262089517    3.817689652741   -3.174530684242
 S   -0.969361861499    3.629665189624   -3.305950445750
 S   -0.478864346182    5.327087583808   -2.120891443277
 C    1.330035879030    5.138924439405   -2.252112529135
 H    1.649958957869    4.181031991391   -1.817468612094
 H    1.766991362480    5.966927573260   -1.674025125768
 H    1.650075966272    5.216787447665   -3.301081289842
CS    0.512094731293   -3.167103520185    1.918915243341
