11

 H   -3.118132151549    3.831293721161   -2.195885654567
 H   -3.235166256939    3.081195049437   -3.822953909621
 H   -3.118252521962    4.867093627120   -3.679467170908
 C   -2.798210789040    3.909212210593   -3.244886627296
 S   -0.989310561022    3.721187747476   -3.376306388804
 S   -0.498813045705    5.418610141660   -2.191247386331
 C    1.310087179507    5.230446997257   -2.322468472189
 H    1.630010258346    4.272554549243   -1.887824555148
 H    1.747042662957    6.058450131112   -1.744381068822
 H    1.630127266749    5.308310005517   -3.371437232896
CS    0.526202505168   -3.231828518881    1.968671155208
