11

 H   -3.138080851072    3.922816279013   -2.266241597621
 H   -3.255114956462    3.172717607289   -3.893309852675
 H   -3.138201221485    4.958616184972   -3.749823113962
 C   -2.818159488563    4.000734768445   -3.315242570350
 S   -1.009259260545    3.812710305328   -3.446662331858
 S   -0.518761745228    5.510132699512   -2.261603329385
 C    1.290138479984    5.321969555109   -2.392824415243
 H    1.610061558823    4.364077107095   -1.958180498202
 H    1.727093963434    6.149972688964   -1.814737011876
 H    1.610178567226    5.399832563369   -3.441793175950
CS    0.540310279042   -3.296553517576    2.018427067076
