11

 H   -3.148055200833    3.968577557939   -2.301419569148
 H   -3.265089306223    3.218478886215   -3.928487824202
 H   -3.148175571246    5.004377463898   -3.785001085489
 C   -2.828133838324    4.046496047371   -3.350420541877
 S   -1.019233610306    3.858471584254   -3.481840303385
 S   -0.528736094989    5.555893978438   -2.296781300912
 C    1.280164130223    5.367730834035   -2.428002386770
 H    1.600087209062    4.409838386021   -1.993358469729
 H    1.717119613673    6.195733967890   -1.849914983403
 H    1.600204217465    5.445593842295   -3.476971147477
CS    0.547364165979   -3.328916016923    2.043305023009
