11

 H   -3.168003900356    4.060100115791   -2.371775512202
 H   -3.285038005746    3.310001444067   -3.998843767256
 H   -3.168124270769    5.095900021750   -3.855357028543
 C   -2.848082537847    4.138018605223   -3.420776484931
 S   -1.039182309829    3.949994142106   -3.552196246439
 S   -0.548684794512    5.647416536290   -2.367137243966
 C    1.260215430700    5.459253391887   -2.498358329824
 H    1.580138509539    4.501360943873   -2.063714412783
 H    1.697170914150    6.287256525742   -1.920270926457
 H    1.580255517942    5.537116400147   -3.547327090531
CS    0.561471939854   -3.393641015619    2.093060934877
