11

 H   -3.177978250118    4.105861394717   -2.406953483729
 H   -3.295012355508    3.355762722993   -4.034021738783
 H   -3.178098620531    5.141661300676   -3.890535000070
 C   -2.858056887609    4.183779884149   -3.455954456458
 S   -1.049156659591    3.995755421032   -3.587374217966
 S   -0.558659144274    5.693177815216   -2.402315215493
 C    1.250241080938    5.505014670813   -2.533536301351
 H    1.570164159777    4.547122222799   -2.098892384310
 H    1.687196564388    6.333017804668   -1.955448897984
 H    1.570281168180    5.582877679073   -3.582505062058
CS    0.568525826791   -3.426003514966    2.117938890811
