11

 H   -3.197926949641    4.197383952569   -2.477309426783
 H   -3.314961055031    3.447285280845   -4.104377681837
 H   -3.198047320054    5.233183858528   -3.960890943124
 C   -2.878005587132    4.275302442001   -3.526310399512
 S   -1.069105359114    4.087277978884   -3.657730161020
 S   -0.578607843797    5.784700373068   -2.472671158547
 C    1.230292381415    5.596537228665   -2.603892244405
 H    1.550215460254    4.638644780651   -2.169248327364
 H    1.667247864865    6.424540362520   -2.025804841038
 H    1.550332468657    5.674400236925   -3.652861005112
CS    0.582633600666   -3.490728513662    2.167694802678
