11

 H   -3.217875649164    4.288906510421   -2.547665369837
 H   -3.334909754554    3.538807838697   -4.174733624891
 H   -3.217996019577    5.324706416380   -4.031246886178
 C   -2.897954286655    4.366824999853   -3.596666342566
 S   -1.089054058637    4.178800536736   -3.728086104074
 S   -0.598556543320    5.876222930920   -2.543027101601
 C    1.210343681892    5.688059786517   -2.674248187459
 H    1.530266760731    4.730167338503   -2.239604270418
 H    1.647299165342    6.516062920372   -2.096160784092
 H    1.530383769134    5.765922794777   -3.723216948166
CS    0.596741374540   -3.555453512357    2.217450714546
