7

 H   -0.299250128565    2.421613020191    0.000000000000
 H    1.240308871435    2.512592020191    0.902247000000
 H    1.240308871435    2.512592020191   -0.902247000000
 C    0.756497871435    2.116072020191    0.000000000000
 S    0.756497871435    0.283346020191    0.000000000000
 H    2.097080871435    0.126955020191    0.000000000000
CS   -0.282732613107   -0.316653979809    0.000000000000
