7

 H   -0.172004264463    2.495078454084    0.000000000000
 H    1.367554735537    2.586057454084    0.902247000000
 H    1.367554735537    2.586057454084   -0.902247000000
 C    0.883743735537    2.189537454084    0.000000000000
 S    0.883743735537    0.356811454084    0.000000000000
 H    2.224326735537    0.200420454084    0.000000000000
CS   -0.328691829762   -0.343188545916    0.000000000000
