7

 H   -0.044758400361    2.568543887976    0.000000000000
 H    1.494800599639    2.659522887976    0.902247000000
 H    1.494800599639    2.659522887976   -0.902247000000
 C    1.010989599639    2.263002887976    0.000000000000
 S    1.010989599639    0.430276887976    0.000000000000
 H    2.351572599639    0.273885887976    0.000000000000
CS   -0.374651046416   -0.369723112024    0.000000000000
