7

 H    0.400602123995    2.825672906600    0.000000000000
 H    1.940161123995    2.916651906600    0.902247000000
 H    1.940161123995    2.916651906600   -0.902247000000
 C    1.456350123995    2.520131906600    0.000000000000
 S    1.456350123995    0.687405906600    0.000000000000
 H    2.796933123995    0.531014906600    0.000000000000
CS   -0.535508304709   -0.462594093400    0.000000000000
