7

 H    0.591470920148    2.935871057439    0.000000000000
 H    2.131029920148    3.026850057439    0.902247000000
 H    2.131029920148    3.026850057439   -0.902247000000
 C    1.647218920148    2.630330057439    0.000000000000
 S    1.647218920148    0.797604057439    0.000000000000
 H    2.987801920148    0.641213057439    0.000000000000
CS   -0.604447129691   -0.502395942561    0.000000000000
