7

 H    0.718716784250    3.009336491331    0.000000000000
 H    2.258275784250    3.100315491331    0.902247000000
 H    2.258275784250    3.100315491331   -0.902247000000
 C    1.774464784250    2.703795491331    0.000000000000
 S    1.774464784250    0.871069491331    0.000000000000
 H    3.115047784250    0.714678491331    0.000000000000
CS   -0.650406346346   -0.528930508669    0.000000000000
