7

 H    0.782339716301    3.046069208278    0.000000000000
 H    2.321898716301    3.137048208278    0.902247000000
 H    2.321898716301    3.137048208278   -0.902247000000
 C    1.838087716301    2.740528208278    0.000000000000
 S    1.838087716301    0.907802208278    0.000000000000
 H    3.178670716301    0.751411208278    0.000000000000
CS   -0.673385954674   -0.542197791722    0.000000000000
