7

 H    0.909585580403    3.119534642170    0.000000000000
 H    2.449144580403    3.210513642170    0.902247000000
 H    2.449144580403    3.210513642170   -0.902247000000
 C    1.965333580403    2.813993642170    0.000000000000
 S    1.965333580403    0.981267642170    0.000000000000
 H    3.305916580403    0.824876642170    0.000000000000
CS   -0.719345171328   -0.568732357830    0.000000000000
