7

 H    1.100454376556    3.229732793009    0.000000000000
 H    2.640013376556    3.320711793009    0.902247000000
 H    2.640013376556    3.320711793009   -0.902247000000
 C    2.156202376556    2.924191793009    0.000000000000
 S    2.156202376556    1.091465793009    0.000000000000
 H    3.496785376556    0.935074793009    0.000000000000
CS   -0.788283996311   -0.608534206991    0.000000000000
