7

 H    1.291323172709    3.339930943848    0.000000000000
 H    2.830882172709    3.430909943848    0.902247000000
 H    2.830882172709    3.430909943848   -0.902247000000
 C    2.347071172709    3.034389943848    0.000000000000
 S    2.347071172709    1.201663943848    0.000000000000
 H    3.687654172709    1.045272943848    0.000000000000
CS   -0.857222821293   -0.648336056152    0.000000000000
