7

 H    1.418569036811    3.413396377740    0.000000000000
 H    2.958128036811    3.504375377740    0.902247000000
 H    2.958128036811    3.504375377740   -0.902247000000
 C    2.474317036811    3.107855377740    0.000000000000
 S    2.474317036811    1.275129377740    0.000000000000
 H    3.814900036811    1.118738377740    0.000000000000
CS   -0.903182037948   -0.674870622260    0.000000000000
