7

 H    1.482191968862    3.450129094687    0.000000000000
 H    3.021750968862    3.541108094687    0.902247000000
 H    3.021750968862    3.541108094687   -0.902247000000
 C    2.537939968862    3.144588094687    0.000000000000
 S    2.537939968862    1.311862094687    0.000000000000
 H    3.878522968862    1.155471094687    0.000000000000
CS   -0.926161646276   -0.688137905313    0.000000000000
