7

 H    1.609437832964    3.523594528579    0.000000000000
 H    3.148996832964    3.614573528579    0.902247000000
 H    3.148996832964    3.614573528579   -0.902247000000
 C    2.665185832964    3.218053528579    0.000000000000
 S    2.665185832964    1.385327528579    0.000000000000
 H    4.005768832964    1.228936528579    0.000000000000
CS   -0.972120862931   -0.714672471421    0.000000000000
