7

 H    1.673060765015    3.560327245525    0.000000000000
 H    3.212619765015    3.651306245525    0.902247000000
 H    3.212619765015    3.651306245525   -0.902247000000
 C    2.728808765015    3.254786245525    0.000000000000
 S    2.728808765015    1.422060245525    0.000000000000
 H    4.069391765015    1.265669245525    0.000000000000
CS   -0.995100471258   -0.727939754475    0.000000000000
