7

 H    1.800306629117    3.633792679418    0.000000000000
 H    3.339865629117    3.724771679418    0.902247000000
 H    3.339865629117    3.724771679418   -0.902247000000
 C    2.856054629117    3.328251679418    0.000000000000
 S    2.856054629117    1.495525679418    0.000000000000
 H    4.196637629117    1.339134679418    0.000000000000
CS   -1.041059687913   -0.754474320582    0.000000000000
