7

 H    1.863929561168    3.670525396364    0.000000000000
 H    3.403488561168    3.761504396364    0.902247000000
 H    3.403488561168    3.761504396364   -0.902247000000
 C    2.919677561168    3.364984396364    0.000000000000
 S    2.919677561168    1.532258396364    0.000000000000
 H    4.260260561168    1.375867396364    0.000000000000
CS   -1.064039296240   -0.767741603636    0.000000000000
