7

 H    2.054798357321    3.780723547203    0.000000000000
 H    3.594357357321    3.871702547203    0.902247000000
 H    3.594357357321    3.871702547203   -0.902247000000
 C    3.110546357321    3.475182547203    0.000000000000
 S    3.110546357321    1.642456547203    0.000000000000
 H    4.451129357321    1.486065547203    0.000000000000
CS   -1.132978121223   -0.807543452797    0.000000000000
