7

 H    2.245667153474    3.890921698042    0.000000000000
 H    3.785226153474    3.981900698042    0.902247000000
 H    3.785226153474    3.981900698042   -0.902247000000
 C    3.301415153474    3.585380698042    0.000000000000
 S    3.301415153474    1.752654698042    0.000000000000
 H    4.641998153474    1.596263698042    0.000000000000
CS   -1.201916946205   -0.847345301958    0.000000000000
