7

 H    2.436535949627    4.001119848881    0.000000000000
 H    3.976094949627    4.092098848881    0.902247000000
 H    3.976094949627    4.092098848881   -0.902247000000
 C    3.492283949627    3.695578848881    0.000000000000
 S    3.492283949627    1.862852848881    0.000000000000
 H    4.832866949627    1.706461848881    0.000000000000
CS   -1.270855771188   -0.887147151119    0.000000000000
