7

 H    2.754650609882    4.184783433612    0.000000000000
 H    4.294209609882    4.275762433612    0.902247000000
 H    4.294209609882    4.275762433612   -0.902247000000
 C    3.810398609882    3.879242433612    0.000000000000
 S    3.810398609882    2.046516433612    0.000000000000
 H    5.150981609882    1.890125433612    0.000000000000
CS   -1.385753812825   -0.953483566388    0.000000000000
