7

 H    2.818273541933    4.221516150558    0.000000000000
 H    4.357832541933    4.312495150558    0.902247000000
 H    4.357832541933    4.312495150558   -0.902247000000
 C    3.874021541933    3.915975150558    0.000000000000
 S    3.874021541933    2.083249150558    0.000000000000
 H    5.214604541933    1.926858150558    0.000000000000
CS   -1.408733421153   -0.966750849442    0.000000000000
