7

 H    2.881896473984    4.258248867504    0.000000000000
 H    4.421455473984    4.349227867504    0.902247000000
 H    4.421455473984    4.349227867504   -0.902247000000
 C    3.937644473984    3.952707867504    0.000000000000
 S    3.937644473984    2.119981867504    0.000000000000
 H    5.278227473984    1.963590867504    0.000000000000
CS   -1.431713029480   -0.980018132496    0.000000000000
