7

 H    3.200011134238    4.441912452236    0.000000000000
 H    4.739570134238    4.532891452236    0.902247000000
 H    4.739570134238    4.532891452236   -0.902247000000
 C    4.255759134238    4.136371452236    0.000000000000
 S    4.255759134238    2.303645452236    0.000000000000
 H    5.596342134238    2.147254452236    0.000000000000
CS   -1.546611071117   -1.046354547764    0.000000000000
