7

 H    3.263634066289    4.478645169182    0.000000000000
 H    4.803193066289    4.569624169182    0.902247000000
 H    4.803193066289    4.569624169182   -0.902247000000
 C    4.319382066289    4.173104169182    0.000000000000
 S    4.319382066289    2.340378169182    0.000000000000
 H    5.659965066289    2.183987169182    0.000000000000
CS   -1.569590679445   -1.059621830818    0.000000000000
