7

 H    3.390879930391    4.552110603075    0.000000000000
 H    4.930438930391    4.643089603075    0.902247000000
 H    4.930438930391    4.643089603075   -0.902247000000
 C    4.446627930391    4.246569603075    0.000000000000
 S    4.446627930391    2.413843603075    0.000000000000
 H    5.787210930391    2.257452603075    0.000000000000
CS   -1.615549896100   -1.086156396925    0.000000000000
