7

 H    3.518125794493    4.625576036967    0.000000000000
 H    5.057684794493    4.716555036967    0.902247000000
 H    5.057684794493    4.716555036967   -0.902247000000
 C    4.573873794493    4.320035036967    0.000000000000
 S    4.573873794493    2.487309036967    0.000000000000
 H    5.914456794493    2.330918036967    0.000000000000
CS   -1.661509112755   -1.112690963033    0.000000000000
