7

 H    3.899863386799    4.845972338645    0.000000000000
 H    5.439422386799    4.936951338645    0.902247000000
 H    5.439422386799    4.936951338645   -0.902247000000
 C    4.955611386799    4.540431338645    0.000000000000
 S    4.955611386799    2.707705338645    0.000000000000
 H    6.296194386799    2.551314338645    0.000000000000
CS   -1.799386762719   -1.192294661355    0.000000000000
