7

 H    3.963486318850    4.882705055591    0.000000000000
 H    5.503045318850    4.973684055591    0.902247000000
 H    5.503045318850    4.973684055591   -0.902247000000
 C    5.019234318850    4.577164055591    0.000000000000
 S    5.019234318850    2.744438055591    0.000000000000
 H    6.359817318850    2.588047055591    0.000000000000
CS   -1.822366371047   -1.205561944409    0.000000000000
