7

 H    4.027109250901    4.919437772537    0.000000000000
 H    5.566668250901    5.010416772537    0.902247000000
 H    5.566668250901    5.010416772537   -0.902247000000
 C    5.082857250901    4.613896772537    0.000000000000
 S    5.082857250901    2.781170772537    0.000000000000
 H    6.423440250901    2.624779772537    0.000000000000
CS   -1.845345979374   -1.218829227463    0.000000000000
