7

 H    4.281600979105    5.066368640322    0.000000000000
 H    5.821159979105    5.157347640322    0.902247000000
 H    5.821159979105    5.157347640322   -0.902247000000
 C    5.337348979105    4.760827640322    0.000000000000
 S    5.337348979105    2.928101640322    0.000000000000
 H    6.677931979105    2.771710640322    0.000000000000
CS   -1.937264412684   -1.271898359678    0.000000000000
