7

 H    4.472469775258    5.176566791161    0.000000000000
 H    6.012028775258    5.267545791161    0.902247000000
 H    6.012028775258    5.267545791161   -0.902247000000
 C    5.528217775258    4.871025791161    0.000000000000
 S    5.528217775258    3.038299791161    0.000000000000
 H    6.868800775258    2.881908791161    0.000000000000
CS   -2.006203237667   -1.311700208839    0.000000000000
