7

 H    4.536092707309    5.213299508107    0.000000000000
 H    6.075651707309    5.304278508107    0.902247000000
 H    6.075651707309    5.304278508107   -0.902247000000
 C    5.591840707309    4.907758508107    0.000000000000
 S    5.591840707309    3.075032508107    0.000000000000
 H    6.932423707309    2.918641508107    0.000000000000
CS   -2.029182845994   -1.324967491893    0.000000000000
