7

 H    4.599715639360    5.250032225054    0.000000000000
 H    6.139274639360    5.341011225054    0.902247000000
 H    6.139274639360    5.341011225054   -0.902247000000
 C    5.655463639360    4.944491225054    0.000000000000
 S    5.655463639360    3.111765225054    0.000000000000
 H    6.996046639360    2.955374225054    0.000000000000
CS   -2.052162454322   -1.338234774946    0.000000000000
