7

 H    4.790584435513    5.360230375892    0.000000000000
 H    6.330143435513    5.451209375892    0.902247000000
 H    6.330143435513    5.451209375892   -0.902247000000
 C    5.846332435513    5.054689375892    0.000000000000
 S    5.846332435513    3.221963375892    0.000000000000
 H    7.186915435513    3.065572375892    0.000000000000
CS   -2.121101279304   -1.378036624108    0.000000000000
