13

 N   -0.598948730243    1.593859759366   -0.000008313613
 C    0.574790852840    2.321231950876   -0.000320792783
 H    0.457073992777    3.406550409920   -0.000436640342
 C   -0.644724703323    0.200647967499   -0.000393368182
 O   -1.696312871879   -0.433455346342   -0.000050001078
 N    0.615715837818   -0.382822088633    0.000023535140
 H    0.625531634941   -1.401107200499   -0.000003768955
 C    1.876970127051    0.253233398330    0.000040629976
 O    2.910663055119   -0.416030436086   -0.000705035688
 C    1.795491335291    1.713780459720   -0.000459267471
 H    2.718891473593    2.290840718586   -0.000799944248
 H   -1.502685906191    2.053513880726   -0.000209965213
 K   -1.673489388882   -1.633238051557    0.000690869837
