13

 N   -0.599439536311    1.619660406518   -0.000024245623
 C    0.574300046772    2.347032598028   -0.000336724793
 H    0.456583186709    3.432351057072   -0.000452572352
 C   -0.645215509391    0.226448614651   -0.000409300192
 O   -1.696803677947   -0.407654699190   -0.000065933088
 N    0.615225031750   -0.357021441481    0.000007603130
 H    0.625040828873   -1.375306553347   -0.000019700965
 C    1.876479320983    0.279034045482    0.000024697966
 O    2.910172249051   -0.390229788934   -0.000720967698
 C    1.795000529223    1.739581106872   -0.000475199481
 H    2.718400667525    2.316641365738   -0.000815876258
 H   -1.503176712259    2.079314527878   -0.000225897223
 K   -1.672078238033   -1.707419296507    0.000736677071
