13

 N   -0.599930342378    1.645461053670   -0.000040177632
 C    0.573809240705    2.372833245180   -0.000352656802
 H    0.456092380642    3.458151704224   -0.000468504361
 C   -0.645706315458    0.252249261803   -0.000425232201
 O   -1.697294484014   -0.381854052038   -0.000081865097
 N    0.614734225683   -0.331220794329   -0.000008328879
 H    0.624550022806   -1.349505906195   -0.000035632974
 C    1.875988514916    0.304834692634    0.000008765957
 O    2.909681442984   -0.364429141782   -0.000736899707
 C    1.794509723156    1.765381754024   -0.000491131490
 H    2.717909861458    2.342442012890   -0.000831808267
 H   -1.503667518326    2.105115175030   -0.000241829232
 K   -1.670667087184   -1.781600541456    0.000782484305
