13

 N   -0.601402760581    1.722862995126   -0.000087973659
 C    0.572336822502    2.450235186636   -0.000400452829
 H    0.454619962439    3.535553645680   -0.000516300388
 C   -0.647178733661    0.329651203259   -0.000473028228
 O   -1.698766902217   -0.304452110582   -0.000129661124
 N    0.613261807480   -0.253818852873   -0.000056124906
 H    0.623077604603   -1.272103964739   -0.000083429001
 C    1.874516096713    0.382236634090   -0.000039030070
 O    2.908209024781   -0.287027200326   -0.000784695734
 C    1.793037304953    1.842783695480   -0.000538927517
 H    2.716437443255    2.419843954346   -0.000879604294
 H   -1.505139936529    2.182517116486   -0.000289625259
 K   -1.666433634638   -2.004144276304    0.000919906006
