13

 N   -0.601893566649    1.748663642278   -0.000103905669
 C    0.571846016434    2.476035833788   -0.000416384839
 H    0.454129156371    3.561354292832   -0.000532232398
 C   -0.647669539729    0.355451850411   -0.000488960238
 O   -1.699257708285   -0.278651463430   -0.000145593134
 N    0.612771001412   -0.228018205721   -0.000072056916
 H    0.622586798535   -1.246303317587   -0.000099361011
 C    1.874025290645    0.408037281242   -0.000054962080
 O    2.907718218713   -0.261226553174   -0.000800627744
 C    1.792546498885    1.868584342632   -0.000554859527
 H    2.715946637187    2.445644601498   -0.000895536304
 H   -1.505630742597    2.208317763638   -0.000305557269
 K   -1.665022483789   -2.078325521253    0.000965713240
