13

 N   -0.603365984852    1.826065583734   -0.000151701696
 C    0.570373598231    2.553437775244   -0.000464180866
 H    0.452656738168    3.638756234288   -0.000580028425
 C   -0.649141957932    0.432853791867   -0.000536756265
 O   -1.700730126488   -0.201249521974   -0.000193389161
 N    0.611298583209   -0.150616264265   -0.000119852943
 H    0.621114380332   -1.168901376131   -0.000147157038
 C    1.872552872442    0.485439222698   -0.000102758107
 O    2.906245800510   -0.183824611718   -0.000848423771
 C    1.791074080682    1.945986284088   -0.000602655554
 H    2.714474218984    2.523046542954   -0.000943332331
 H   -1.507103160800    2.285719705094   -0.000353353296
 K   -1.660789031243   -2.300869256101    0.001103134941
