13

 N   -0.604347596987    1.877666878038   -0.000183565714
 C    0.569391986096    2.605039069548   -0.000496044884
 H    0.451675126033    3.690357528592   -0.000611892443
 C   -0.650123570067    0.484455086171   -0.000568620283
 O   -1.701711738623   -0.149648227670   -0.000225253179
 N    0.610316971074   -0.099014969961   -0.000151716961
 H    0.620132768197   -1.117300081827   -0.000179021056
 C    1.871571260307    0.537040517002   -0.000134622125
 O    2.905264188375   -0.132223317414   -0.000880287789
 C    1.790092468547    1.997587578392   -0.000634519572
 H    2.713492606849    2.574647837258   -0.000975196349
 H   -1.508084772935    2.337320999398   -0.000385217314
 K   -1.657966729545   -2.449231746000    0.001194749409
