13

 N   -0.605329209123    1.929268172342   -0.000215429733
 C    0.568410373960    2.656640363852   -0.000527908903
 H    0.450693513897    3.741958822896   -0.000643756462
 C   -0.651105182203    0.536056380475   -0.000600484302
 O   -1.702693350759   -0.098046933366   -0.000257117198
 N    0.609335358938   -0.047413675657   -0.000183580980
 H    0.619151156061   -1.065698787523   -0.000210885075
 C    1.870589648171    0.588641811306   -0.000166486144
 O    2.904282576239   -0.080622023110   -0.000912151808
 C    1.789110856411    2.049188872696   -0.000666383591
 H    2.712510994713    2.626249131562   -0.001007060368
 H   -1.509066385071    2.388922293702   -0.000417081333
 K   -1.655144427848   -2.597594235898    0.001286363876
