13

 N   -0.606801627326    2.006670113798   -0.000263225760
 C    0.566937955757    2.734042305308   -0.000575704930
 H    0.449221095694    3.819360764352   -0.000691552489
 C   -0.652577600406    0.613458321931   -0.000648280329
 O   -1.704165768962   -0.020644991910   -0.000304913225
 N    0.607862940735    0.029988265799   -0.000231377007
 H    0.617678737858   -0.988296846067   -0.000258681102
 C    1.869117229968    0.666043752762   -0.000214282171
 O    2.902810158036   -0.003220081654   -0.000959947835
 C    1.787638438208    2.126590814152   -0.000714179618
 H    2.711038576510    2.703651073018   -0.001054856395
 H   -1.510538803274    2.466324235158   -0.000464877360
 K   -1.650910975301   -2.820137970746    0.001423785578
