13

 N   -0.610237269799    2.187274643862   -0.000374749825
 C    0.563502313284    2.914646835372   -0.000687228995
 H    0.445785453221    3.999965294416   -0.000803076554
 C   -0.656013242879    0.794062851995   -0.000759804394
 O   -1.707601411435    0.159959538154   -0.000416437290
 N    0.604427298262    0.210592795863   -0.000342901072
 H    0.614243095385   -0.807692316003   -0.000370205167
 C    1.865681587495    0.846648282826   -0.000325806236
 O    2.899374515563    0.177384448410   -0.001071471900
 C    1.784202795735    2.307195344216   -0.000825703683
 H    2.707602934037    2.884255603082   -0.001166380460
 H   -1.513974445747    2.646928765222   -0.000576401425
 K   -1.641032919360   -3.339406685391    0.001744436214
