13

 N   -0.611218881935    2.238875938166   -0.000406613843
 C    0.562520701148    2.966248129676   -0.000719093013
 H    0.444803841085    4.051566588720   -0.000834940572
 C   -0.656994855015    0.845664146299   -0.000791668412
 O   -1.708583023571    0.211560832458   -0.000448301308
 N    0.603445686126    0.262194090167   -0.000374765090
 H    0.613261483249   -0.756091021699   -0.000402069185
 C    1.864699975359    0.898249577130   -0.000357670254
 O    2.898392903427    0.228985742714   -0.001103335918
 C    1.783221183599    2.358796638520   -0.000857567701
 H    2.706621321901    2.935856897386   -0.001198244478
 H   -1.514956057883    2.698530059526   -0.000608265443
 K   -1.638210617662   -3.487769175290    0.001836050682
