13

 N   -0.611709688002    2.264676585318   -0.000422545852
 C    0.562029895081    2.992048776828   -0.000735025022
 H    0.444313035018    4.077367235872   -0.000850872581
 C   -0.657485661082    0.871464793451   -0.000807600421
 O   -1.709073829638    0.237361479610   -0.000464233317
 N    0.602954880059    0.287994737319   -0.000390697099
 H    0.612770677182   -0.730290374547   -0.000418001194
 C    1.864209169292    0.924050224282   -0.000373602263
 O    2.897902097360    0.254786389866   -0.001119267927
 C    1.782730377532    2.384597285672   -0.000873499710
 H    2.706130515834    2.961657544538   -0.001214176487
 H   -1.515446863950    2.724330706678   -0.000624197452
 K   -1.636799466814   -3.561950420239    0.001881857915
