13

 N   -0.613672912273    2.367879173926   -0.000486273889
 C    0.560066670810    3.095251365436   -0.000798753059
 H    0.442349810747    4.180569824480   -0.000914600618
 C   -0.659448885353    0.974667382059   -0.000871328458
 O   -1.711037053909    0.340564068218   -0.000527961354
 N    0.600991655788    0.391197325927   -0.000454425136
 H    0.610807452911   -0.627087785939   -0.000481729231
 C    1.862245945021    1.027252812890   -0.000437330300
 O    2.895938873089    0.357988978474   -0.001182995964
 C    1.780767153261    2.487799874280   -0.000937227747
 H    2.704167291563    3.064860133146   -0.001277904524
 H   -1.517410088221    2.827533295286   -0.000687925489
 K   -1.631154863418   -3.858675400036    0.002065086851
