13

 N   -0.614654524408    2.419480468230   -0.000518137907
 C    0.559085058675    3.146852659740   -0.000830617077
 H    0.441368198612    4.232171118784   -0.000946464636
 C   -0.660430497488    1.026268676363   -0.000903192476
 O   -1.712018666044    0.392165362522   -0.000559825372
 N    0.600010043653    0.442798620231   -0.000486289154
 H    0.609825840776   -0.575486491635   -0.000513593249
 C    1.861264332886    1.078854107194   -0.000469194318
 O    2.894957260954    0.409590272778   -0.001214859982
 C    1.779785541126    2.539401168584   -0.000969091765
 H    2.703185679428    3.116461427450   -0.001309768542
 H   -1.518391700356    2.879134589590   -0.000719789507
 K   -1.628332561721   -4.007037889935    0.002156701318
