13

 N   -0.616126942611    2.496882409686   -0.000565933935
 C    0.557612640472    3.224254601196   -0.000878413105
 H    0.439895780409    4.309573060240   -0.000994260664
 C   -0.661902915691    1.103670617819   -0.000950988504
 O   -1.713491084247    0.469567303978   -0.000607621400
 N    0.598537625450    0.520200561687   -0.000534085182
 H    0.608353422573   -0.498084550179   -0.000561389277
 C    1.859791914683    1.156256048650   -0.000516990346
 O    2.893484842751    0.486992214234   -0.001262656010
 C    1.778313122923    2.616803110040   -0.001016887793
 H    2.701713261225    3.193863368906   -0.001357564570
 H   -1.519864118559    2.956536531046   -0.000767585535
 K   -1.624099109175   -4.229581624783    0.002294123020
