13

 N   -0.616617748679    2.522683056838   -0.000581865944
 C    0.557121834404    3.250055248348   -0.000894345114
 H    0.439404974341    4.335373707392   -0.001010192673
 C   -0.662393721759    1.129471264971   -0.000966920513
 O   -1.713981890315    0.495367951130   -0.000623553409
 N    0.598046819382    0.546001208839   -0.000550017191
 H    0.607862616505   -0.472283903027   -0.000577321286
 C    1.859301108615    1.182056695802   -0.000532922355
 O    2.892994036683    0.512792861386   -0.001278588019
 C    1.777822316855    2.642603757192   -0.001032819802
 H    2.701222455157    3.219664016058   -0.001373496579
 H   -1.520354924627    2.982337178198   -0.000783517544
 K   -1.622687958326   -4.303762869732    0.002339930253
