13

 N   -0.620053391152    2.703287586902   -0.000693390008
 C    0.553686191931    3.430659778412   -0.001005869178
 H    0.435969331868    4.515978237456   -0.001121716737
 C   -0.665829364232    1.310075795035   -0.001078444577
 O   -1.717417532788    0.675972481194   -0.000735077473
 N    0.594611176909    0.726605738903   -0.000661541255
 H    0.604426974032   -0.291679372963   -0.000688845350
 C    1.855865466142    1.362661225866   -0.000644446419
 O    2.889558394210    0.693397391450   -0.001390112083
 C    1.774386674382    2.823208287256   -0.001144343866
 H    2.697786812684    3.400268546122   -0.001485020643
 H   -1.523790567100    3.162941708262   -0.000895041608
 K   -1.612809902384   -4.823031584377    0.002660580890
