13

 N   -0.620544197220    2.729088234054   -0.000709322018
 C    0.553195385863    3.456460425564   -0.001021801188
 H    0.435478525800    4.541778884608   -0.001137648747
 C   -0.666320170300    1.335876442187   -0.001094376587
 O   -1.717908338856    0.701773128346   -0.000751009483
 N    0.594120370841    0.752406386055   -0.000677473265
 H    0.603936167964   -0.265878725811   -0.000704777360
 C    1.855374660074    1.388461873018   -0.000660378429
 O    2.889067588142    0.719198038602   -0.001406044093
 C    1.773895868314    2.849008934408   -0.001160275876
 H    2.697296006616    3.426069193274   -0.001500952653
 H   -1.524281373168    3.188742355414   -0.000910973618
 K   -1.611398751536   -4.897212829327    0.002706388124
