13

 N   -0.621035003288    2.754888881206   -0.000725254027
 C    0.552704579795    3.482261072716   -0.001037733197
 H    0.434987719732    4.567579531760   -0.001153580756
 C   -0.666810976368    1.361677089339   -0.001110308596
 O   -1.718399144924    0.727573775498   -0.000766941492
 N    0.593629564773    0.778207033207   -0.000693405274
 H    0.603445361896   -0.240078078659   -0.000720709369
 C    1.854883854006    1.414262520170   -0.000676310438
 O    2.888576782074    0.744998685754   -0.001421976102
 C    1.773405062246    2.874809581560   -0.001176207885
 H    2.696805200548    3.451869840426   -0.001516884662
 H   -1.524772179236    3.214543002566   -0.000926905627
 K   -1.609987600687   -4.971394074276    0.002752195357
