13

 N   -0.621525809355    2.780689528358   -0.000741186036
 C    0.552213773728    3.508061719868   -0.001053665206
 H    0.434496913665    4.593380178912   -0.001169512765
 C   -0.667301782435    1.387477736491   -0.001126240605
 O   -1.718889950991    0.753374422650   -0.000782873501
 N    0.593138758706    0.804007680359   -0.000709337283
 H    0.602954555829   -0.214277431507   -0.000736641378
 C    1.854393047939    1.440063167322   -0.000692242447
 O    2.888085976007    0.770799332906   -0.001437908111
 C    1.772914256179    2.900610228712   -0.001192139894
 H    2.696314394481    3.477670487578   -0.001532816671
 H   -1.525262985303    3.240343649718   -0.000942837636
 K   -1.608576449838   -5.045575319225    0.002798002591
