13

 N   -0.622998227558    2.858091469814   -0.000788982063
 C    0.550741355525    3.585463661324   -0.001101461233
 H    0.433024495462    4.670782120368   -0.001217308792
 C   -0.668774200638    1.464879677947   -0.001174036632
 O   -1.720362369194    0.830776364106   -0.000830669528
 N    0.591666340503    0.881409621815   -0.000757133310
 H    0.601482137626   -0.136875490051   -0.000784437405
 C    1.852920629736    1.517465108778   -0.000740038474
 O    2.886613557804    0.848201274362   -0.001485704138
 C    1.771441837976    2.978012170168   -0.001239935921
 H    2.694841976278    3.555072429034   -0.001580612698
 H   -1.526735403506    3.317745591174   -0.000990633663
 K   -1.604342997292   -5.268119054073    0.002935424292
