13

 N   -0.624470645761    2.935493411270   -0.000836778091
 C    0.549268937322    3.662865602780   -0.001149257261
 H    0.431552077259    4.748184061824   -0.001265104820
 C   -0.670246618841    1.542281619403   -0.001221832660
 O   -1.721834787397    0.908178305562   -0.000878465556
 N    0.590193922300    0.958811563271   -0.000804929338
 H    0.600009719423   -0.059473548595   -0.000832233433
 C    1.851448211533    1.594867050234   -0.000787834502
 O    2.885141139601    0.925603215818   -0.001533500166
 C    1.769969419773    3.055414111624   -0.001287731949
 H    2.693369558075    3.632474370490   -0.001628408726
 H   -1.528207821709    3.395147532630   -0.001038429691
 K   -1.600109544745   -5.490662788921    0.003072845994
