13

 N   -0.624961451829    2.961294058422   -0.000852710100
 C    0.548778131254    3.688666249932   -0.001165189270
 H    0.431061271191    4.773984708976   -0.001281036829
 C   -0.670737424909    1.568082266555   -0.001237764669
 O   -1.722325593465    0.933978952714   -0.000894397565
 N    0.589703116232    0.984612210423   -0.000820861347
 H    0.599518913355   -0.033672901443   -0.000848165442
 C    1.850957405465    1.620667697386   -0.000803766511
 O    2.884650333533    0.951403862970   -0.001549432175
 C    1.769478613705    3.081214758776   -0.001303663958
 H    2.692878752007    3.658275017642   -0.001644340735
 H   -1.528698627777    3.420948179782   -0.001054361700
 K   -1.598698393897   -5.564844033870    0.003118653228
