13

 N   -0.625452257897    2.987094705574   -0.000868642109
 C    0.548287325186    3.714466897084   -0.001181121279
 H    0.430570465123    4.799785356128   -0.001296968838
 C   -0.671228230977    1.593882913707   -0.001253696678
 O   -1.722816399533    0.959779599866   -0.000910329574
 N    0.589212310164    1.010412857575   -0.000836793356
 H    0.599028107287   -0.007872254291   -0.000864097451
 C    1.850466599397    1.646468344538   -0.000819698520
 O    2.884159527465    0.977204510122   -0.001565364184
 C    1.768987807637    3.107015405928   -0.001319595967
 H    2.692387945939    3.684075664794   -0.001660272744
 H   -1.529189433845    3.446748826934   -0.001070293709
 K   -1.597287243048   -5.639025278819    0.003164460461
