13

 N   -0.627415482167    3.090297294182   -0.000932370146
 C    0.546324100916    3.817669485692   -0.001244849316
 H    0.428607240853    4.902987944736   -0.001360696875
 C   -0.673191455247    1.697085502315   -0.001317424715
 O   -1.724779623803    1.062982188474   -0.000974057611
 N    0.587249085894    1.113615446183   -0.000900521393
 H    0.597064883017    0.095330334317   -0.000927825488
 C    1.848503375127    1.749670933146   -0.000883426557
 O    2.882196303195    1.080407098730   -0.001629092221
 C    1.767024583367    3.210217994536   -0.001383324004
 H    2.690424721669    3.787278253402   -0.001724000781
 H   -1.531152658115    3.549951415542   -0.001134021746
 K   -1.591642639653   -5.935750258617    0.003347689397
