13

 N   -0.627906288235    3.116097941334   -0.000948302155
 C    0.545833294848    3.843470132844   -0.001260781325
 H    0.428116434785    4.928788591888   -0.001376628884
 C   -0.673682261315    1.722886149467   -0.001333356724
 O   -1.725270429871    1.088782835626   -0.000989989620
 N    0.586758279826    1.139416093335   -0.000916453402
 H    0.596574076949    0.121130981469   -0.000943757497
 C    1.848012569059    1.775471580298   -0.000899358566
 O    2.881705497127    1.106207745882   -0.001645024230
 C    1.766533777299    3.236018641688   -0.001399256013
 H    2.689933915601    3.813078900554   -0.001739932790
 H   -1.531643464183    3.575752062694   -0.001149953755
 K   -1.590231488804   -6.009931503566    0.003393496630
