13

 N   -0.628397094303    3.141898588486   -0.000964234164
 C    0.545342488780    3.869270779996   -0.001276713334
 H    0.427625628717    4.954589239040   -0.001392560893
 C   -0.674173067383    1.748686796619   -0.001349288733
 O   -1.725761235939    1.114583482778   -0.001005921629
 N    0.586267473758    1.165216740487   -0.000932385411
 H    0.596083270881    0.146931628621   -0.000959689506
 C    1.847521762991    1.801272227450   -0.000915290575
 O    2.881214691059    1.132008393034   -0.001660956239
 C    1.766042971231    3.261819288840   -0.001415188022
 H    2.689443109533    3.838879547706   -0.001755864799
 H   -1.532134270251    3.601552709846   -0.001165885764
 K   -1.588820337955   -6.084112748515    0.003439303864
