13

 N   -0.629869512506    3.219300529942   -0.001012030192
 C    0.543870070577    3.946672721452   -0.001324509362
 H    0.426153210514    5.031991180496   -0.001440356921
 C   -0.675645485586    1.826088738075   -0.001397084761
 O   -1.727233654142    1.191985424234   -0.001053717657
 N    0.584795055555    1.242618681943   -0.000980181439
 H    0.594610852678    0.224333570077   -0.001007485534
 C    1.846049344788    1.878674168906   -0.000963086603
 O    2.879742272856    1.209410334490   -0.001708752267
 C    1.764570553028    3.339221230296   -0.001462984050
 H    2.687970691330    3.916281489162   -0.001803660827
 H   -1.533606688454    3.678954651302   -0.001213681792
 K   -1.584586885409   -6.306656483363    0.003576725565
