13

 N   -0.630851124641    3.270901824246   -0.001043894210
 C    0.542888458442    3.998274015756   -0.001356373380
 H    0.425171598379    5.083592474800   -0.001472220939
 C   -0.676627097721    1.877690032379   -0.001428948779
 O   -1.728215266277    1.243586718538   -0.001085581675
 N    0.583813443420    1.294219976247   -0.001012045457
 H    0.593629240543    0.275934864381   -0.001039349552
 C    1.845067732653    1.930275463210   -0.000994950621
 O    2.878760660721    1.261011628794   -0.001740616285
 C    1.763588940893    3.390822524600   -0.001494848068
 H    2.686989079195    3.967882783466   -0.001835524845
 H   -1.534588300589    3.730555945606   -0.001245545810
 K   -1.581764583711   -6.455018973262    0.003668340033
