13

 N   -0.632814348912    3.374104412853   -0.001107622247
 C    0.540925234171    4.101476604363   -0.001420101417
 H    0.423208374108    5.186795063407   -0.001535948976
 C   -0.678590321992    1.980892620986   -0.001492676816
 O   -1.730178490548    1.346789307145   -0.001149309712
 N    0.581850219149    1.397422564854   -0.001075773494
 H    0.591666016272    0.379137452988   -0.001103077589
 C    1.843104508382    2.033478051817   -0.001058678658
 O    2.876797436450    1.364214217401   -0.001804344322
 C    1.761625716622    3.494025113207   -0.001558576105
 H    2.685025854924    4.071085372073   -0.001899252882
 H   -1.536551524860    3.833758534213   -0.001309273847
 K   -1.576119980316   -6.751743953059    0.003851568968
