13

 N   -0.633795961047    3.425705707157   -0.001139486266
 C    0.539943622036    4.153077898667   -0.001451965436
 H    0.422226761973    5.238396357711   -0.001567812995
 C   -0.679571934127    2.032493915290   -0.001524540835
 O   -1.731160102683    1.398390601449   -0.001181173731
 N    0.580868607014    1.449023859158   -0.001107637513
 H    0.590684404137    0.430738747292   -0.001134941608
 C    1.842122896247    2.085079346121   -0.001090542677
 O    2.875815824315    1.415815511705   -0.001836208341
 C    1.760644104487    3.545626407511   -0.001590440124
 H    2.684044242789    4.122686666377   -0.001931116901
 H   -1.537533136995    3.885359828517   -0.001341137866
 K   -1.573297678619   -6.900106442958    0.003943183436
