13

 N   -0.634286767115    3.451506354309   -0.001155418275
 C    0.539452815968    4.178878545819   -0.001467897445
 H    0.421735955905    5.264197004863   -0.001583745004
 C   -0.680062740195    2.058294562442   -0.001540472844
 O   -1.731650908751    1.424191248601   -0.001197105740
 N    0.580377800946    1.474824506310   -0.001123569522
 H    0.590193598069    0.456539394444   -0.001150873617
 C    1.841632090179    2.110879993273   -0.001106474686
 O    2.875325018247    1.441616158857   -0.001852140350
 C    1.760153298419    3.571427054663   -0.001606372133
 H    2.683553436721    4.148487313529   -0.001947048910
 H   -1.538023943063    3.911160475669   -0.001357069875
 K   -1.571886527770   -6.974287687907    0.003988990669
