13

 N   -0.634777573182    3.477307001461   -0.001171350284
 C    0.538962009901    4.204679192971   -0.001483829454
 H    0.421245149838    5.289997652015   -0.001599677013
 C   -0.680553546262    2.084095209594   -0.001556404853
 O   -1.732141714818    1.449991895753   -0.001213037749
 N    0.579886994879    1.500625153462   -0.001139501531
 H    0.589702792002    0.482340041596   -0.001166805626
 C    1.841141284112    2.136680640425   -0.001122406695
 O    2.874834212180    1.467416806009   -0.001868072359
 C    1.759662492352    3.597227701815   -0.001622304142
 H    2.683062630654    4.174287960681   -0.001962980919
 H   -1.538514749130    3.936961122821   -0.001373001884
 K   -1.570475376921   -7.048468932856    0.004034797903
