13

 N   -0.636249991385    3.554708942917   -0.001219146311
 C    0.537489591698    4.282081134427   -0.001531625481
 H    0.419772731635    5.367399593471   -0.001647473040
 C   -0.682025964465    2.161497151050   -0.001604200880
 O   -1.733614133021    1.527393837209   -0.001260833776
 N    0.578414576676    1.578027094918   -0.001187297558
 H    0.588230373799    0.559741983052   -0.001214601653
 C    1.839668865909    2.214082581881   -0.001170202722
 O    2.873361793977    1.544818747465   -0.001915868386
 C    1.758190074149    3.674629643271   -0.001670100169
 H    2.681590212451    4.251689902137   -0.002010776946
 H   -1.539987167333    4.014363064277   -0.001420797911
 K   -1.566241924375   -7.271012667704    0.004172219605
