13

 N   -0.637231603521    3.606310237221   -0.001251010330
 C    0.536507979562    4.333682428731   -0.001563489500
 H    0.418791119499    5.419000887775   -0.001679337059
 C   -0.683007576601    2.213098445354   -0.001636064899
 O   -1.734595745157    1.578995131513   -0.001292697795
 N    0.577432964540    1.629628389222   -0.001219161577
 H    0.587248761663    0.611343277356   -0.001246465672
 C    1.838687253773    2.265683876185   -0.001202066741
 O    2.872380181841    1.596420041769   -0.001947732405
 C    1.757208462013    3.726230937575   -0.001701964188
 H    2.680608600315    4.303291196441   -0.002042640965
 H   -1.540968779469    4.065964358581   -0.001452661930
 K   -1.563419622677   -7.419375157603    0.004263834072
