13

 N   -0.637722409588    3.632110884373   -0.001266942339
 C    0.536017173495    4.359483075883   -0.001579421509
 H    0.418300313432    5.444801534927   -0.001695269068
 C   -0.683498382668    2.238899092506   -0.001651996908
 O   -1.735086551224    1.604795778665   -0.001308629804
 N    0.576942158473    1.655429036374   -0.001235093586
 H    0.586757955596    0.637143924508   -0.001262397681
 C    1.838196447706    2.291484523337   -0.001217998750
 O    2.871889375774    1.622220688921   -0.001963664414
 C    1.756717655946    3.752031584727   -0.001717896197
 H    2.680117794248    4.329091843593   -0.002058572974
 H   -1.541459585536    4.091765005733   -0.001468593939
 K   -1.562008471828   -7.493556402552    0.004309641306
