13

 N   -0.640667245994    3.786914767285   -0.001362534394
 C    0.533072337089    4.514286958795   -0.001675013564
 H    0.415355477026    5.599605417839   -0.001790861123
 C   -0.686443219074    2.393702975418   -0.001747588963
 O   -1.738031387630    1.759599661577   -0.001404221859
 N    0.573997322067    1.810232919286   -0.001330685641
 H    0.583813119190    0.791947807420   -0.001357989736
 C    1.835251611300    2.446288406249   -0.001313590805
 O    2.868944539368    1.777024571833   -0.002059256469
 C    1.753772819540    3.906835467639   -0.001813488252
 H    2.677172957842    4.483895726505   -0.002154165029
 H   -1.544404421942    4.246568888645   -0.001564185994
 K   -1.553541566736   -7.938643872248    0.004584484709
