16

 N   -1.490270410800    1.966492650109    0.054030972268
 C   -0.119654998391    2.165967327950    0.050399337892
 H    0.202129297947    3.209712258826    0.071818153585
 C   -2.089985680229    0.713377490556    0.029500981612
 O   -3.307759711761    0.546434784489    0.030497062386
 N   -1.164679664618   -0.323400119286    0.001844444623
 H   -1.559253372481   -1.261914429135   -0.018664428775
 C    0.241050713777   -0.237361406968   -0.006603606168
 O    0.929371386205   -1.260978628770   -0.034711544721
 C    0.770819894842    1.131027461766    0.022002762966
 C    2.263109788448    1.314885787228    0.017171953140
 H    2.524657417528    2.383313664096    0.039826121287
 H    2.703254102038    0.856565567806   -0.881936298306
 H    2.714114995157    0.816399301922    0.889108790053
 H   -2.132576634129    2.750745688283    0.073926390558
 K    1.487238863773   -2.090595957430   -0.057492358095
