16

 N   -1.516616726868    2.005672851924    0.055106838013
 C   -0.146001314459    2.205147529765    0.051475203637
 H    0.175782981879    3.248892460641    0.072894019330
 C   -2.116331996297    0.752557692371    0.030576847357
 O   -3.334106027829    0.585614986304    0.031572928131
 N   -1.191025980686   -0.284219917471    0.002920310368
 H   -1.585599688549   -1.222734227320   -0.017588563030
 C    0.214704397709   -0.198181205153   -0.005527740423
 O    0.903025070137   -1.221798426955   -0.033635678976
 C    0.744473578774    1.170207663581    0.023078628711
 C    2.236763472380    1.354065989043    0.018247818885
 H    2.498311101460    2.422493865911    0.040901987032
 H    2.676907785970    0.895745769621   -0.880860432561
 H    2.687768679089    0.855579503737    0.890184655798
 H   -2.158922950197    2.789925890098    0.075002256303
 K    1.572466043218   -2.217339221348   -0.060972655025
