16

 N   -1.529789884902    2.025262952831    0.055644770886
 C   -0.159174472493    2.224737630672    0.052013136510
 H    0.162609823845    3.268482561548    0.073431952203
 C   -2.129505154331    0.772147793278    0.031114780230
 O   -3.347279185863    0.605205087211    0.032110861004
 N   -1.204199138720   -0.264629816564    0.003458243241
 H   -1.598772846583   -1.203144126413   -0.017050630157
 C    0.201531239675   -0.178591104246   -0.004989807550
 O    0.889851912103   -1.202208326048   -0.033097746103
 C    0.731300420740    1.189797764488    0.023616561584
 C    2.223590314346    1.373656089950    0.018785751758
 H    2.485137943426    2.442083966818    0.041439919905
 H    2.663734627936    0.915335870528   -0.880322499688
 H    2.674595521055    0.875169604644    0.890722588671
 H   -2.172096108231    2.809515991005    0.075540189176
 K    1.615079632941   -2.280710853307   -0.062712803490
