16

 N   -1.542963042937    2.044853053738    0.056182703758
 C   -0.172347630528    2.244327731579    0.052551069382
 H    0.149436665810    3.288072662455    0.073969885075
 C   -2.142678312366    0.791737894185    0.031652713102
 O   -3.360452343898    0.624795188118    0.032648793876
 N   -1.217372296755   -0.245039715657    0.003996176113
 H   -1.611946004618   -1.183554025506   -0.016512697285
 C    0.188358081640   -0.159001003339   -0.004451874678
 O    0.876678754068   -1.182618225141   -0.032559813231
 C    0.718127262705    1.209387865395    0.024154494456
 C    2.210417156311    1.393246190857    0.019323684630
 H    2.471964785391    2.461674067725    0.041977852777
 H    2.650561469901    0.934925971435   -0.879784566816
 H    2.661422363020    0.894759705551    0.891260521543
 H   -2.185269266266    2.829106091912    0.076078122048
 K    1.657693222663   -2.344082485266   -0.064452951954
