16

 N   -1.556136200971    2.064443154645    0.056720636631
 C   -0.185520788562    2.263917832486    0.053089002255
 H    0.136263507776    3.307662763362    0.074507817948
 C   -2.155851470400    0.811327995092    0.032190645975
 O   -3.373625501932    0.644385289025    0.033186726749
 N   -1.230545454789   -0.225449614750    0.004534108986
 H   -1.625119162652   -1.163963924599   -0.015974764412
 C    0.175184923606   -0.139410902432   -0.003913941805
 O    0.863505596034   -1.163028124234   -0.032021880358
 C    0.704954104671    1.228977966302    0.024692427329
 C    2.197243998277    1.412836291764    0.019861617503
 H    2.458791627357    2.481264168632    0.042515785650
 H    2.637388311867    0.954516072342   -0.879246633943
 H    2.648249204986    0.914349806458    0.891798454416
 H   -2.198442424300    2.848696192819    0.076616054921
 K    1.700306812386   -2.407454117225   -0.066193100419
