16

 N   -1.582482517039    2.103623356459    0.057796502376
 C   -0.211867104630    2.303098034300    0.054164868000
 H    0.109917191708    3.346842965176    0.075583683693
 C   -2.182197786468    0.850508196906    0.033266511720
 O   -3.399971818000    0.683565490839    0.034262592494
 N   -1.256891770857   -0.186269412936    0.005609974731
 H   -1.651465478720   -1.124783722785   -0.014898898667
 C    0.148838607538   -0.100230700618   -0.002838076060
 O    0.837159279966   -1.123847922420   -0.030946014613
 C    0.678607788603    1.268158168116    0.025768293074
 C    2.170897682209    1.452016493578    0.020937483248
 H    2.432445311289    2.520444370446    0.043591651395
 H    2.611041995799    0.993696274156   -0.878170768198
 H    2.621902888918    0.953530008272    0.892874320161
 H   -2.224788740368    2.887876394633    0.077691920666
 K    1.785533991831   -2.534197381143   -0.069673397349
