16

 N   -1.608828833108    2.142803558274    0.058872368121
 C   -0.238213420699    2.342278236115    0.055240733745
 H    0.083570875639    3.386023166991    0.076659549438
 C   -2.208544102537    0.889688398721    0.034342377465
 O   -3.426318134069    0.722745692654    0.035338458239
 N   -1.283238086926   -0.147089211121    0.006685840476
 H   -1.677811794789   -1.085603520970   -0.013823032922
 C    0.122492291469   -0.061050498803   -0.001762210315
 O    0.810812963897   -1.084667720605   -0.029870148868
 C    0.652261472534    1.307338369931    0.026844158819
 C    2.144551366140    1.491196695393    0.022013348993
 H    2.406098995220    2.559624572261    0.044667517140
 H    2.584695679730    1.032876475971   -0.877094902453
 H    2.595556572849    0.992710210087    0.893950185906
 H   -2.251135056437    2.927056596448    0.078767786411
 K    1.870761171276   -2.660940645061   -0.073153694279
