16

 N   -1.648348307211    2.201573860995    0.060486166739
 C   -0.277732894802    2.401048538836    0.056854532363
 H    0.044051401536    3.444793469712    0.078273348056
 C   -2.248063576640    0.948458701442    0.035956176083
 O   -3.465837608172    0.781515995375    0.036952256857
 N   -1.322757561029   -0.088318908400    0.008299639094
 H   -1.717331268892   -1.026833218249   -0.012209234304
 C    0.082972817366   -0.002280196082   -0.000148411697
 O    0.771293489794   -1.025897417884   -0.028256350250
 C    0.612741998431    1.366108672652    0.028457957437
 C    2.105031892037    1.549966998114    0.023627147611
 H    2.366579521117    2.618394874982    0.046281315758
 H    2.545176205627    1.091646778692   -0.875481103835
 H    2.556037098746    1.051480512808    0.895563984524
 H   -2.290654530540    2.985826899169    0.080381585029
 K    1.998601940444   -2.851055540937   -0.078374139673
