16

 N   -1.674694623279    2.240754062810    0.061562032484
 C   -0.304079210870    2.440228740651    0.057930398108
 H    0.017705085468    3.483973671527    0.079349213801
 C   -2.274409892708    0.987638903257    0.037032041828
 O   -3.492183924240    0.820696197190    0.038028122602
 N   -1.349103877097   -0.049138706585    0.009375504839
 H   -1.743677584960   -0.987653016434   -0.011133368559
 C    0.056626501298    0.036900005733    0.000927454048
 O    0.744947173726   -0.986717216069   -0.027180484505
 C    0.586395682363    1.405288874467    0.029533823182
 C    2.078685575969    1.589147199929    0.024703013356
 H    2.340233205049    2.657575076797    0.047357181503
 H    2.518829889559    1.130826980507   -0.874405238090
 H    2.529690782678    1.090660714623    0.896639850269
 H   -2.317000846608    3.025007100984    0.081457450774
 K    2.083829119889   -2.977798804855   -0.081854436603
