16

 N   -1.687867781313    2.260344163717    0.062099965357
 C   -0.317252368904    2.459818841558    0.058468330981
 H    0.004531927434    3.503563772434    0.079887146674
 C   -2.287583050742    1.007229004164    0.037569974701
 O   -3.505357082274    0.840286298097    0.038566055475
 N   -1.362277035131   -0.029548605678    0.009913437712
 H   -1.756850742994   -0.968062915527   -0.010595435686
 C    0.043453343264    0.056490106640    0.001465386921
 O    0.731774015692   -0.967127115162   -0.026642551632
 C    0.573222524329    1.424878975374    0.030071756055
 C    2.065512417935    1.608737300836    0.025240946229
 H    2.327060047015    2.677165177704    0.047895114376
 H    2.505656731525    1.150417081414   -0.873867305217
 H    2.516517624644    1.110250815530    0.897177783142
 H   -2.330174004642    3.044597201891    0.081995383647
 K    2.126442709611   -3.041170436814   -0.083594585068
