16

 N   -1.701040939347    2.279934264624    0.062637898229
 C   -0.330425526938    2.479408942465    0.059006263853
 H   -0.008641230600    3.523153873341    0.080425079546
 C   -2.300756208776    1.026819105071    0.038107907573
 O   -3.518530240308    0.859876399004    0.039103988347
 N   -1.375450193165   -0.009958504771    0.010451370584
 H   -1.770023901028   -0.948472814620   -0.010057502814
 C    0.030280185230    0.076080207547    0.002003319793
 O    0.718600857658   -0.947537014255   -0.026104618760
 C    0.560049366295    1.444469076281    0.030609688927
 C    2.052339259901    1.628327401743    0.025778879101
 H    2.313886888981    2.696755278611    0.048433047248
 H    2.492483573491    1.170007182321   -0.873329372345
 H    2.503344466610    1.129840916437    0.897715716014
 H   -2.343347162676    3.064187302798    0.082533316519
 K    2.169056299334   -3.104542068773   -0.085334733533
