16

 N   -1.766906729519    2.377884769160    0.065327562592
 C   -0.396291317110    2.577359447001    0.061695928216
 H   -0.074507020772    3.621104377877    0.083114743909
 C   -2.366621998948    1.124769609607    0.040797571936
 O   -3.584396030480    0.957826903540    0.041793652710
 N   -1.441315983337    0.087991999765    0.013141034947
 H   -1.835889691200   -0.850522310084   -0.007367838451
 C   -0.035585604942    0.174030712083    0.004692984156
 O    0.652735067486   -0.849586509719   -0.023414954397
 C    0.494183576123    1.542419580817    0.033299353290
 C    1.986473469729    1.726277906279    0.028468543464
 H    2.248021098809    2.794705783147    0.051122711611
 H    2.426617783319    1.267957686857   -0.870639707982
 H    2.437478676438    1.227791420973    0.900405380377
 H   -2.409212952848    3.162137807334    0.085222980882
 K    2.382124247947   -3.421400228567   -0.094035475857
