16

 N   -1.793253045587    2.417064970974    0.066403428337
 C   -0.422637633178    2.616539648815    0.062771793961
 H   -0.100853336840    3.660284579691    0.084190609654
 C   -2.392968315016    1.163949811421    0.041873437681
 O   -3.610742346548    0.997007105354    0.042869518455
 N   -1.467662299405    0.127172201579    0.014216900692
 H   -1.862236007268   -0.811342108270   -0.006291972706
 C   -0.061931921010    0.213210913897    0.005768849901
 O    0.626388751418   -0.810406307905   -0.022339088652
 C    0.467837260055    1.581599782631    0.034375219035
 C    1.960127153661    1.765458108093    0.029544409209
 H    2.221674782741    2.833885984961    0.052198577356
 H    2.400271467251    1.307137888671   -0.869563842237
 H    2.411132360370    1.266971622787    0.901481246122
 H   -2.435559268916    3.201318009148    0.086298846627
 K    2.467351427392   -3.548143492485   -0.097515772786
