16

 N   -1.832772519690    2.475835273696    0.068017226955
 C   -0.462157107281    2.675309951537    0.064385592579
 H   -0.140372810943    3.719054882413    0.085804408272
 C   -2.432487789119    1.222720114143    0.043487236299
 O   -3.650261820651    1.055777408076    0.044483317073
 N   -1.507181773508    0.185942504301    0.015830699310
 H   -1.901755481371   -0.752571805548   -0.004678174088
 C   -0.101451395113    0.271981216619    0.007382648519
 O    0.586869277315   -0.751636005183   -0.020725290034
 C    0.428317785952    1.640370085353    0.035989017653
 C    1.920607679558    1.824228410815    0.031158207827
 H    2.182155308638    2.892656287683    0.053812375974
 H    2.360751993148    1.365908191393   -0.867950043619
 H    2.371612886267    1.325741925509    0.903095044740
 H   -2.475078743019    3.260088311870    0.087912645245
 K    2.595192196559   -3.738258388362   -0.102736218181
