16

 N   -1.845945677724    2.495425374603    0.068555159828
 C   -0.475330265315    2.694900052444    0.064923525452
 H   -0.153545968977    3.738644983320    0.086342341145
 C   -2.445660947153    1.242310215050    0.044025169172
 O   -3.663434978685    1.075367508983    0.045021249946
 N   -1.520354931542    0.205532605208    0.016368632183
 H   -1.914928639405   -0.732981704641   -0.004140241215
 C   -0.114624553147    0.291571317526    0.007920581392
 O    0.573696119281   -0.732045904276   -0.020187357161
 C    0.415144627918    1.659960186260    0.036526950526
 C    1.907434521524    1.843818511722    0.031696140700
 H    2.168982150604    2.912246388590    0.054350308847
 H    2.347578835114    1.385498292300   -0.867412110746
 H    2.358439728233    1.345332026416    0.903632977613
 H   -2.488251901053    3.279678412777    0.088450578118
 K    2.637805786282   -3.801630020321   -0.104476366646
