16

 N   -1.911811467895    2.593375879139    0.071244824191
 C   -0.541196055486    2.792850556980    0.067613189815
 H   -0.219411759148    3.836595487856    0.089032005508
 C   -2.511526737324    1.340260719586    0.046714833535
 O   -3.729300768856    1.173318013519    0.047710914309
 N   -1.586220721713    0.303483109744    0.019058296546
 H   -1.980794429576   -0.635031200105   -0.001450576852
 C   -0.180490343318    0.389521822062    0.010610245755
 O    0.507830329110   -0.634095399740   -0.017497692798
 C    0.349278837747    1.757910690796    0.039216614889
 C    1.841568731353    1.941769016258    0.034385805063
 H    2.103116360433    3.010196893126    0.057039973210
 H    2.281713044943    1.483448796836   -0.864722446383
 H    2.292573938062    1.443282530952    0.906322641976
 H   -2.554117691224    3.377628917313    0.091140242481
 K    2.850873734895   -4.118488180115   -0.113177108970
