16

 N   -1.938157783963    2.632556080953    0.072320689936
 C   -0.567542371554    2.832030758794    0.068689055560
 H   -0.245758075216    3.875775689670    0.090107871253
 C   -2.537873053392    1.379440921400    0.047790699280
 O   -3.755647084924    1.212498215333    0.048786780054
 N   -1.612567037781    0.342663311558    0.020134162291
 H   -2.007140745644   -0.595850998291   -0.000374711107
 C   -0.206836659386    0.428702023876    0.011686111500
 O    0.481484013042   -0.594915197926   -0.016421827053
 C    0.322932521679    1.797090892610    0.040292480634
 C    1.815222415285    1.980949218072    0.035461670808
 H    2.076770044365    3.049377094940    0.058115838955
 H    2.255366728875    1.522628998650   -0.863646580638
 H    2.266227621994    1.482462732766    0.907398507721
 H   -2.580464007292    3.416809119127    0.092216108226
 K    2.936100914340   -4.245231444033   -0.116657405900
