16

 N   -2.004023574135    2.730506585489    0.075010354299
 C   -0.633408161726    2.929981263330    0.071378719923
 H   -0.311623865388    3.973726194206    0.092797535616
 C   -2.603738843564    1.477391425936    0.050480363643
 O   -3.821512875096    1.310448719869    0.051476444417
 N   -1.678432827953    0.440613816094    0.022823826654
 H   -2.073006535816   -0.497900493755    0.002314953256
 C   -0.272702449558    0.526652528412    0.014375775863
 O    0.415618222870   -0.496964693390   -0.013732162690
 C    0.257066731507    1.895041397146    0.042982144997
 C    1.749356625113    2.078899722608    0.038151335171
 H    2.010904254193    3.147327599476    0.060805503318
 H    2.189500938703    1.620579503186   -0.860956916275
 H    2.200361831822    1.580413237302    0.910088172084
 H   -2.646329797464    3.514759623663    0.094905772589
 K    3.149168862953   -4.562089603828   -0.125358148224
