16

 N   -2.017196732169    2.750096686396    0.075548287171
 C   -0.646581319760    2.949571364237    0.071916652795
 H   -0.324797023422    3.993316295113    0.093335468488
 C   -2.616912001598    1.496981526843    0.051018296515
 O   -3.834686033130    1.330038820776    0.052014377289
 N   -1.691605985987    0.460203917001    0.023361759526
 H   -2.086179693850   -0.478310392848    0.002852886128
 C   -0.285875607592    0.546242629319    0.014913708735
 O    0.402445064836   -0.477374592483   -0.013194229818
 C    0.243893573473    1.914631498053    0.043520077869
 C    1.736183467079    2.098489823515    0.038689268043
 H    1.997731096159    3.166917700383    0.061343436190
 H    2.176327780669    1.640169604093   -0.860418983403
 H    2.187188673788    1.600003338209    0.910626104956
 H   -2.659502955498    3.534349724570    0.095443705461
 K    3.191782452675   -4.625461235787   -0.127098296689
