16

 N   -2.030369890203    2.769686787303    0.076086220044
 C   -0.659754477794    2.969161465144    0.072454585668
 H   -0.337970181456    4.012906396020    0.093873401361
 C   -2.630085159632    1.516571627750    0.051556229388
 O   -3.847859191164    1.349628921683    0.052552310162
 N   -1.704779144021    0.479794017908    0.023899692399
 H   -2.099352851884   -0.458720291941    0.003390819001
 C   -0.299048765626    0.565832730226    0.015451641608
 O    0.389271906802   -0.457784491576   -0.012656296945
 C    0.230720415439    1.934221598960    0.044058010742
 C    1.723010309045    2.118079924422    0.039227200916
 H    1.984557938125    3.186507801290    0.061881369063
 H    2.163154622635    1.659759705000   -0.859881050530
 H    2.174015515754    1.619593439116    0.911164037829
 H   -2.672676113532    3.553939825477    0.095981638334
 K    3.234396042398   -4.688832867746   -0.128838445154
