16

 N   -2.056716206271    2.808866989117    0.077162085789
 C   -0.686100793862    3.008341666958    0.073530451413
 H   -0.364316497524    4.052086597834    0.094949267106
 C   -2.656431475700    1.555751829564    0.052632095133
 O   -3.874205507232    1.388809123497    0.053628175907
 N   -1.731125460089    0.518974219722    0.024975558144
 H   -2.125699167952   -0.419540090127    0.004466684746
 C   -0.325395081694    0.605012932040    0.016527507353
 O    0.362925590734   -0.418604289762   -0.011580431200
 C    0.204374099371    1.973401800774    0.045133876487
 C    1.696663992977    2.157260126236    0.040303066661
 H    1.958211622057    3.225688003104    0.062957234808
 H    2.136808306567    1.698939906814   -0.858805184785
 H    2.147669199686    1.658773640930    0.912239903574
 H   -2.699022429600    3.593120027291    0.097057504079
 K    3.319623221843   -4.815576131663   -0.132318742083
