16

 N   -2.069889364306    2.828457090025    0.077700018662
 C   -0.699273951897    3.027931767866    0.074068384286
 H   -0.377489655559    4.071676698742    0.095487199979
 C   -2.669604633735    1.575341930472    0.053170028006
 O   -3.887378665267    1.408399224405    0.054166108780
 N   -1.744298618124    0.538564320630    0.025513491017
 H   -2.138872325987   -0.399949989219    0.005004617619
 C   -0.338568239729    0.624603032948    0.017065440226
 O    0.349752432699   -0.399014188854   -0.011042498327
 C    0.191200941336    1.992991901682    0.045671809360
 C    1.683490834942    2.176850227144    0.040840999534
 H    1.945038464022    3.245278104012    0.063495167681
 H    2.123635148532    1.718530007722   -0.858267251912
 H    2.134496041651    1.678363741838    0.912777836447
 H   -2.712195587635    3.612710128199    0.097595436952
 K    3.362236811566   -4.878947763622   -0.134058890548
