16

 N   -2.083062522340    2.848047190932    0.078237951534
 C   -0.712447109931    3.047521868773    0.074606317158
 H   -0.390662813593    4.091266799649    0.096025132851
 C   -2.682777791769    1.594932031379    0.053707960878
 O   -3.900551823301    1.427989325312    0.054704041652
 N   -1.757471776158    0.558154421537    0.026051423889
 H   -2.152045484021   -0.380359888312    0.005542550491
 C   -0.351741397763    0.644193133855    0.017603373098
 O    0.336579274665   -0.379424087947   -0.010504565455
 C    0.178027783302    2.012582002589    0.046209742232
 C    1.670317676908    2.196440328051    0.041378932406
 H    1.931865305988    3.264868204919    0.064033100553
 H    2.110461990498    1.738120108629   -0.857729319040
 H    2.121322883617    1.697953842745    0.913315769319
 H   -2.725368745669    3.632300229106    0.098133369824
 K    3.404850401288   -4.942319395581   -0.135799039013
