16

 N   -2.096235680374    2.867637291839    0.078775884407
 C   -0.725620267965    3.067111969680    0.075144250031
 H   -0.403835971627    4.110856900556    0.096563065724
 C   -2.695950949803    1.614522132286    0.054245893751
 O   -3.913724981335    1.447579426219    0.055241974525
 N   -1.770644934192    0.577744522444    0.026589356762
 H   -2.165218642055   -0.360769787405    0.006080483364
 C   -0.364914555797    0.663783234762    0.018141305971
 O    0.323406116631   -0.359833987040   -0.009966632582
 C    0.164854625268    2.032172103496    0.046747675105
 C    1.657144518874    2.216030428958    0.041916865279
 H    1.918692147954    3.284458305826    0.064571033426
 H    2.097288832464    1.757710209536   -0.857191386167
 H    2.108149725583    1.717543943652    0.913853702192
 H   -2.738541903703    3.651890330013    0.098671302697
 K    3.447463991011   -5.005691027540   -0.137539187478
