16

 N   -2.148928312511    2.945997695468    0.080927615897
 C   -0.778312900102    3.145472373309    0.077295981521
 H   -0.456528603764    4.189217304185    0.098714797214
 C   -2.748643581940    1.692882535915    0.056397625241
 O   -3.966417613472    1.525939829848    0.057393706015
 N   -1.823337566329    0.656104926073    0.028741088252
 H   -2.217911274192   -0.282409383776    0.008232214854
 C   -0.417607187934    0.742143638391    0.020293037461
 O    0.270713484494   -0.281473583411   -0.007814901092
 C    0.112161993131    2.110532507125    0.048899406595
 C    1.604451886737    2.294390832587    0.044068596769
 H    1.865999515817    3.362818709455    0.066722764916
 H    2.044596200327    1.836070613165   -0.855039654677
 H    2.055457093446    1.795904347281    0.916005433682
 H   -2.791234535840    3.730250733642    0.100823034187
 K    3.617918349901   -5.259177555376   -0.144499781337
