16

 N   -2.175274628579    2.985177897282    0.082003481642
 C   -0.804659216170    3.184652575123    0.078371847266
 H   -0.482874919832    4.228397505999    0.099790662959
 C   -2.774989898008    1.732062737729    0.057473490986
 O   -3.992763929540    1.565120031662    0.058469571760
 N   -1.849683882397    0.695285127887    0.029816953997
 H   -2.244257590260   -0.243229181962    0.009308080599
 C   -0.443953504002    0.781323840205    0.021368903206
 O    0.244367168426   -0.242293381597   -0.006739035347
 C    0.085815677063    2.149712708939    0.049975272340
 C    1.578105570669    2.333571034401    0.045144462514
 H    1.839653199749    3.401998911269    0.067798630661
 H    2.018249884259    1.875250814979   -0.853963788932
 H    2.029110777378    1.835084549095    0.917081299427
 H   -2.817580851908    3.769430935456    0.101898899932
 K    3.703145529346   -5.385920819294   -0.147980078267
