16

 N   -2.214794102682    3.043948200003    0.083617280260
 C   -0.844178690273    3.243422877844    0.079985645884
 H   -0.522394393935    4.287167808720    0.101404461577
 C   -2.814509372111    1.790833040450    0.059087289604
 O   -4.032283403643    1.623890334383    0.060083370378
 N   -1.889203356500    0.754055430608    0.031430752615
 H   -2.283777064363   -0.184458879241    0.010921879217
 C   -0.483472978105    0.840094142926    0.022982701824
 O    0.204847694323   -0.183523078876   -0.005125236729
 C    0.046296202960    2.208483011660    0.051589070958
 C    1.538586096566    2.392341337122    0.046758261132
 H    1.800133725646    3.460769213990    0.069412429279
 H    1.978730410156    1.934021117700   -0.852349990314
 H    1.989591303275    1.893854851816    0.918695098045
 H   -2.857100326011    3.828201238177    0.103512698550
 K    3.830986298514   -5.576035715170   -0.153200523661
