16

 N   -2.227967260716    3.063538300911    0.084155213133
 C   -0.857351848307    3.263012978752    0.080523578757
 H   -0.535567551969    4.306757909628    0.101942394450
 C   -2.827682530145    1.810423141358    0.059625222477
 O   -4.045456561677    1.643480435291    0.060621303251
 N   -1.902376514534    0.773645531516    0.031968685488
 H   -2.296950222397   -0.164868778333    0.011459812090
 C   -0.496646136139    0.859684243834    0.023520634697
 O    0.191674536289   -0.163932977968   -0.004587303856
 C    0.033123044926    2.228073112568    0.052127003831
 C    1.525412938532    2.411931438030    0.047296194005
 H    1.786960567612    3.480359314898    0.069950362152
 H    1.965557252122    1.953611218608   -0.851812057441
 H    1.976418145241    1.913444952724    0.919233030918
 H   -2.870273484045    3.847791339085    0.104050631423
 K    3.873599888236   -5.639407347129   -0.154940672126
