16

 N   -2.372871999093    3.279029410889    0.090072474731
 C   -1.002256586684    3.478504088730    0.086440840355
 H   -0.680472290346    4.522249019606    0.107859656048
 C   -2.972587268522    2.025914251336    0.065542484075
 O   -4.190361300054    1.858971545269    0.066538564849
 N   -2.047281252911    0.989136641494    0.037885947086
 H   -2.441854960774    0.050622331645    0.017377073688
 C   -0.641550874516    1.075175353812    0.029437896295
 O    0.046769797912    0.051558132010    0.001329957742
 C   -0.111781693451    2.443564222546    0.058044265429
 C    1.380508200155    2.627422548008    0.053213455603
 H    1.642055829235    3.695850424876    0.075867623750
 H    1.820652513745    2.169102328586   -0.845894795843
 H    1.831513406864    2.128936062702    0.925150292516
 H   -3.015178222422    4.063282449063    0.109967893021
 K    4.342349375184   -6.336495298677   -0.174082305239
