16

 N   -2.386045157127    3.298619511796    0.090610407604
 C   -1.015429744718    3.498094189637    0.086978773228
 H   -0.693645448380    4.541839120513    0.108397588921
 C   -2.985760426556    2.045504352243    0.066080416948
 O   -4.203534458088    1.878561646176    0.067076497722
 N   -2.060454410945    1.008726742401    0.038423879959
 H   -2.455028118808    0.070212432552    0.017915006561
 C   -0.654724032550    1.094765454719    0.029975829168
 O    0.033596639878    0.071148232917    0.001867890615
 C   -0.124954851485    2.463154323453    0.058582198302
 C    1.367335042121    2.647012648915    0.053751388476
 H    1.628882671201    3.715440525783    0.076405556623
 H    1.807479355711    2.188692429493   -0.845356862970
 H    1.818340248830    2.148526163609    0.925688225389
 H   -3.028351380456    4.082872549970    0.110505825894
 K    4.384962964907   -6.399866930636   -0.175822453704
