16

 N   -2.412391473196    3.337799713611    0.091686273349
 C   -1.041776060787    3.537274391452    0.088054638973
 H   -0.719991764449    4.581019322328    0.109473454666
 C   -3.012106742625    2.084684554058    0.067156282693
 O   -4.229880774157    1.917741847991    0.068152363467
 N   -2.086800727014    1.047906944216    0.039499745704
 H   -2.481374434877    0.109392634367    0.018990872306
 C   -0.681070348619    1.133945656534    0.031051694913
 O    0.007250323809    0.110328434732    0.002943756360
 C   -0.151301167554    2.502334525268    0.059658064047
 C    1.340988726052    2.686192850730    0.054827254221
 H    1.602536355132    3.754620727598    0.077481422368
 H    1.781133039642    2.227872631308   -0.844280997225
 H    1.791993932761    2.187706365424    0.926764091134
 H   -3.054697696525    4.122052751785    0.111581691639
 K    4.470190144352   -6.526610194554   -0.179302750634
