16

 N   -2.438737789264    3.376979915425    0.092762139094
 C   -1.068122376855    3.576454593266    0.089130504718
 H   -0.746338080517    4.620199524142    0.110549320411
 C   -3.038453058693    2.123864755872    0.068232148438
 O   -4.256227090225    1.956922049805    0.069228229212
 N   -2.113147043082    1.087087146030    0.040575611449
 H   -2.507720750945    0.148572836181    0.020066738051
 C   -0.707416664687    1.173125858348    0.032127560658
 O   -0.019095992259    0.149508636546    0.004019622105
 C   -0.177647483622    2.541514727082    0.060733929792
 C    1.314642409984    2.725373052544    0.055903119966
 H    1.576190039064    3.793800929412    0.078557288113
 H    1.754786723574    2.267052833122   -0.843205131480
 H    1.765647616693    2.226886567238    0.927839956879
 H   -3.081044012593    4.161232953599    0.112657557384
 K    4.555417323797   -6.653353458472   -0.182783047564
