16

 N   -2.491430421401    3.455340319054    0.094913870584
 C   -1.120815008992    3.654814996895    0.091282236208
 H   -0.799030712654    4.698559927771    0.112701051901
 C   -3.091145690830    2.202225159501    0.070383879928
 O   -4.308919722362    2.035282453434    0.071379960702
 N   -2.165839675219    1.165447549659    0.042727342939
 H   -2.560413383082    0.226933239810    0.022218469541
 C   -0.760109296824    1.251486261977    0.034279292148
 O   -0.071788624396    0.227869040175    0.006171353595
 C   -0.230340115759    2.619875130711    0.062885661282
 C    1.261949777847    2.803733456173    0.058054851456
 H    1.523497406927    3.872161333041    0.080709019603
 H    1.702094091437    2.345413236751   -0.841053399990
 H    1.712954984556    2.305246970867    0.929991688369
 H   -3.133736644730    4.239593357228    0.114809288874
 K    4.725871682687   -6.906839986307   -0.189743641423
