16

 N   -2.504603579435    3.474930419961    0.095451803457
 C   -1.133988167026    3.674405097802    0.091820169081
 H   -0.812203870688    4.718150028678    0.113238984774
 C   -3.104318848864    2.221815260408    0.070921812801
 O   -4.322092880396    2.054872554341    0.071917893575
 N   -2.179012833253    1.185037650566    0.043265275812
 H   -2.573586541116    0.246523340717    0.022756402414
 C   -0.773282454858    1.271076362884    0.034817225021
 O   -0.084961782430    0.247459141082    0.006709286468
 C   -0.243513273793    2.639465231618    0.063423594155
 C    1.248776619813    2.823323557080    0.058592784329
 H    1.510324248893    3.891751433948    0.081246952476
 H    1.688920933403    2.365003337658   -0.840515467117
 H    1.699781826522    2.324837071774    0.930529621242
 H   -3.146909802764    4.259183458135    0.115347221747
 K    4.768485272410   -6.970211618266   -0.191483789888
