16

 N   -2.583642527640    3.592471025404    0.098679400692
 C   -1.213027115231    3.791945703245    0.095047766316
 H   -0.891242818893    4.835690634121    0.116466582009
 C   -3.183357797069    2.339355865851    0.074149410036
 O   -4.401131828601    2.172413159784    0.075145490810
 N   -2.258051781458    1.302578256009    0.046492873047
 H   -2.652625489321    0.364063946160    0.025983999649
 C   -0.852321403063    1.388616968327    0.038044822256
 O   -0.164000730635    0.364999746525    0.009936883703
 C   -0.322552221998    2.757005837061    0.066651191390
 C    1.169737671608    2.940864162523    0.061820381564
 H    1.431285300688    4.009292039391    0.084474549711
 H    1.609881985198    2.482543943101   -0.837287869882
 H    1.620742878317    2.442377677217    0.933757218477
 H   -3.225948750969    4.376724063578    0.118574818982
 K    5.024166810745   -7.350441410020   -0.201924680677
