16

 N   -2.636335159777    3.670831429033    0.100831132183
 C   -1.265719747368    3.870306106874    0.097199497807
 H   -0.943935451030    4.914051037750    0.118618313500
 C   -3.236050429206    2.417716269480    0.076301141527
 O   -4.453824460738    2.250773563413    0.077297222301
 N   -2.310744413595    1.380938659638    0.048644604538
 H   -2.705318121458    0.442424349789    0.028135731140
 C   -0.905014035200    1.466977371956    0.040196553747
 O   -0.216693362772    0.443360150154    0.012088615194
 C   -0.375244854135    2.835366240690    0.068802922881
 C    1.117045039471    3.019224566152    0.063972113055
 H    1.378592668551    4.087652443020    0.086626281202
 H    1.557189353061    2.560904346730   -0.835136138391
 H    1.568050246180    2.520738080846    0.935908949968
 H   -3.278641383106    4.455084467207    0.120726550473
 K    5.194621169635   -7.603927937855   -0.208885274536
