16

 N   -2.662681475846    3.710011630847    0.101906997928
 C   -1.292066063437    3.909486308688    0.098275363552
 H   -0.970281767099    4.953231239564    0.119694179245
 C   -3.262396745275    2.456896471294    0.077377007272
 O   -4.480170776807    2.289953765227    0.078373088046
 N   -2.337090729664    1.420118861452    0.049720470283
 H   -2.731664437527    0.481604551603    0.029211596885
 C   -0.931360351269    1.506157573770    0.041272419492
 O   -0.243039678841    0.482540351968    0.013164480939
 C   -0.401591170204    2.874546442504    0.069878788626
 C    1.090698723402    3.058404767966    0.065047978800
 H    1.352246352482    4.126832644834    0.087702146947
 H    1.530843036992    2.600084548544   -0.834060272646
 H    1.541703930111    2.559918282660    0.936984815713
 H   -3.304987699175    4.494264669021    0.121802416218
 K    5.279848349081   -7.730671201773   -0.212365571466
