20

 C    0.525275917626    3.766231135951   -0.291776494503
 H    1.176405917626    4.616021135951   -0.112606494503
 C    0.604345917626    2.748071135951   -1.229356494503
 H    1.393345917626    2.645501135951   -1.969526494503
 N   -0.480754082374    3.371551135951    0.559693505497
 H   -0.872624082374    3.945061135951    1.303773505497
 C   -1.046114082374    2.228021135951    0.048323505497
 H   -1.912564082374    1.756191135951    0.526373505497
 N   -0.371594082374    1.804551135951   -1.024436494503
RB   -1.418204082374   -0.317568864049    1.738413505497
RB    1.499695917626   -0.078148864049   -1.513766494503
 N    0.269901270036   -1.310685582821    0.744070700543
 C   -0.706049789432   -2.254213453208    0.948989732908
 H   -1.495048607118   -2.151637408667    1.689161454118
 C   -0.626979021724   -3.272367147469    0.011413355136
 H   -1.278115752790   -4.122156821971   -0.167756614909
 N    0.379044997431   -2.877687219543   -0.840053956906
 H    0.770914062441   -3.451204237421   -1.584135695825
 C    0.944407402709   -1.734163466841   -0.328681561675
 H    1.810868101755   -1.262334389144   -0.806740889424
