20

 C    0.521355274105    3.785270607733   -0.302585125075
 H    1.172485274105    4.635060607733   -0.123415125075
 C    0.600425274105    2.767110607733   -1.240165125075
 H    1.389425274105    2.664540607733   -1.980335125075
 N   -0.484674725895    3.390590607733    0.548884874925
 H   -0.876544725895    3.964100607733    1.292964874925
 C   -1.050034725895    2.247060607733    0.037514874925
 H   -1.916484725895    1.775230607733    0.515564874925
 N   -0.375514725895    1.823590607733   -1.035245125075
RB   -1.422124725895   -0.298529392267    1.727604874925
RB    1.495775274105   -0.059109392267   -1.524575125075
 N    0.283607961315   -1.377248166329    0.781858008051
 C   -0.692343098153   -2.320776036716    0.986777040417
 H   -1.481341915839   -2.218199992175    1.726948761626
 C   -0.613272330445   -3.338929730977    0.049200662644
 H   -1.264409061512   -4.188719405479   -0.129969307400
 N    0.392751688710   -2.944249803051   -0.802266649398
 H    0.784620753720   -3.517766820929   -1.546348388316
 C    0.958114093988   -1.800726050349   -0.290894254166
 H    1.824574793034   -1.328896972652   -0.768953581915
