20

 C    0.517434630583    3.804310079516   -0.313393755647
 H    1.168564630583    4.654100079516   -0.134223755647
 C    0.596504630583    2.786150079516   -1.250973755647
 H    1.385504630583    2.683580079516   -1.991143755647
 N   -0.488595369417    3.409630079516    0.538076244353
 H   -0.880465369417    3.983140079516    1.282156244353
 C   -1.053955369417    2.266100079516    0.026706244353
 H   -1.920405369417    1.794270079516    0.504756244353
 N   -0.379435369417    1.842630079516   -1.046053755647
RB   -1.426045369417   -0.279489920484    1.716796244353
RB    1.491854630583   -0.040069920484   -1.535383755647
 N    0.297314652594   -1.443810749837    0.819645315560
 C   -0.678636406875   -2.387338620224    1.024564347926
 H   -1.467635224560   -2.284762575683    1.764736069135
 C   -0.599565639166   -3.405492314485    0.086987970153
 H   -1.250702370233   -4.255281988986   -0.092181999891
 N    0.406458379989   -3.010812386559   -0.764479341889
 H    0.798327444999   -3.584329404437   -1.508561080808
 C    0.971820785266   -1.867288633857   -0.253106946658
 H    1.838281484313   -1.395459556160   -0.731166274406
