20

 C    0.513513987061    3.823349551298   -0.324202386218
 H    1.164643987061    4.673139551298   -0.145032386218
 C    0.592583987061    2.805189551298   -1.261782386218
 H    1.381583987061    2.702619551298   -2.001952386218
 N   -0.492516012939    3.428669551298    0.527267613782
 H   -0.884386012939    4.002179551298    1.271347613782
 C   -1.057876012939    2.285139551298    0.015897613782
 H   -1.924326012939    1.813309551298    0.493947613782
 N   -0.383356012939    1.861669551298   -1.056862386218
RB   -1.429966012939   -0.260450448702    1.705987613782
RB    1.487933987061   -0.021030448702   -1.546192386218
 N    0.311021343873   -1.510373333345    0.857432623069
 C   -0.664929715596   -2.453901203732    1.062351655435
 H   -1.453928533281   -2.351325159191    1.802523376644
 C   -0.585858947887   -3.472054897993    0.124775277662
 H   -1.236995678954   -4.321844572494   -0.054394692382
 N    0.420165071267   -3.077374970066   -0.726692034380
 H    0.812034136278   -3.650891987945   -1.470773773299
 C    0.985527476545   -1.933851217364   -0.215319639149
 H    1.851988175592   -1.462022139668   -0.693378966898
