20

 C    0.505672700017    3.861428494862   -0.345819647362
 H    1.156802700017    4.711218494862   -0.166649647362
 C    0.584742700017    2.843268494862   -1.283399647362
 H    1.373742700017    2.740698494862   -2.023569647362
 N   -0.500357299983    3.466748494862    0.505650352638
 H   -0.892227299983    4.040258494862    1.249730352638
 C   -1.065717299983    2.323218494862   -0.005719647362
 H   -1.932167299983    1.851388494862    0.472330352638
 N   -0.391197299983    1.899748494862   -1.078479647362
RB   -1.437807299983   -0.222371505138    1.684370352638
RB    1.480092700017    0.017048494862   -1.567809647362
 N    0.338434726430   -1.643498500361    0.933007238086
 C   -0.637516333038   -2.587026370748    1.137926270452
 H   -1.426515150723   -2.484450326207    1.878097991661
 C   -0.558445565329   -3.605180065009    0.200349892679
 H   -1.209582296396   -4.454969739510    0.021179922635
 N    0.447578453825   -3.210500137082   -0.651117419363
 H    0.839447518836   -3.784017154961   -1.395199158281
 C    1.012940859103   -2.066976384380   -0.139745024131
 H    1.879401558150   -1.595147306684   -0.617804351880
