20

 C    0.501752056495    3.880467966644   -0.356628277934
 H    1.152882056495    4.730257966644   -0.177458277934
 C    0.580822056495    2.862307966644   -1.294208277934
 H    1.369822056495    2.759737966644   -2.034378277934
 N   -0.504277943505    3.485787966644    0.494841722066
 H   -0.896147943505    4.059297966644    1.238921722066
 C   -1.069637943505    2.342257966644   -0.016528277934
 H   -1.936087943505    1.870427966644    0.461521722066
 N   -0.395117943505    1.918787966644   -1.089288277934
RB   -1.441727943505   -0.203332033356    1.673561722066
RB    1.476172056495    0.036087966644   -1.578618277934
 N    0.352141417709   -1.710061083869    0.970794545595
 C   -0.623809641759   -2.653588954256    1.175713577961
 H   -1.412808459444   -2.551012909715    1.915885299170
 C   -0.544738874050   -3.671742648517    0.238137200188
 H   -1.195875605117   -4.521532323018    0.058967230144
 N    0.461285145104   -3.277062720590   -0.613330111854
 H    0.853154210115   -3.850579738468   -1.357411850773
 C    1.026647550382   -2.133538967888   -0.101957716623
 H    1.893108249428   -1.661709890192   -0.580017044372
