20

 C    0.184179931221    5.422665181005   -1.232127354245
 H    0.835309931221    6.272455181005   -1.052957354245
 C    0.263249931221    4.404505181005   -2.169707354245
 H    1.052249931221    4.301935181005   -2.909877354245
 N   -0.821850068779    5.027985181005   -0.380657354245
 H   -1.213720068779    5.601495181005    0.363422645755
 C   -1.387210068779    3.884455181005   -0.892027354245
 H   -2.253660068779    3.412625181005   -0.413977354245
 N   -0.712690068779    3.460985181005   -1.964787354245
RB   -1.759300068779    1.338865181005    0.798062645755
RB    1.158599931221    1.578285181005   -2.454117354245
 N    1.462383411296   -7.101630348014    4.031566453800
 C    0.486432351827   -8.045158218401    4.236485486166
 H   -0.302566465858   -7.942582173860    4.976657207375
 C    0.565503119536   -9.063311912661    3.298909108393
 H   -0.085633611531   -9.913101587163    3.119739138349
 N    1.571527138690   -8.668631984735    2.447441796351
 H    1.963396203701   -9.242149002613    1.703360057432
 C    2.136889543968   -7.525108232033    2.958814191583
 H    3.003350243015   -7.053279154337    2.480754863834
