20

 C    0.493910769451    3.918546910209   -0.378245539077
 H    1.145040769451    4.768336910209   -0.199075539077
 C    0.572980769451    2.900386910209   -1.315825539077
 H    1.361980769451    2.797816910209   -2.055995539077
 N   -0.512119230549    3.523866910209    0.473224460923
 H   -0.903989230549    4.097376910209    1.217304460923
 C   -1.077479230549    2.380336910209   -0.038145539077
 H   -1.943929230549    1.908506910209    0.439904460923
 N   -0.402959230549    1.956866910209   -1.110905539077
RB   -1.449569230549   -0.165253089791    1.651944460923
RB    1.468330769451    0.074166910209   -1.600235539077
 N    0.379554800267   -1.843186250885    1.046369160612
 C   -0.596396259202   -2.786714121272    1.251288192978
 H   -1.385395076887   -2.684138076731    1.991459914187
 C   -0.517325491493   -3.804867815532    0.313711815205
 H   -1.168462222560   -4.654657490034    0.134541845161
 N    0.488698527662   -3.410187887606   -0.537755496837
 H    0.880567592672   -3.983704905484   -1.281837235755
 C    1.054060932939   -2.266664134904   -0.026383101605
 H    1.920521631986   -1.794835057208   -0.504442429354
