20

 C    0.489990125929    3.937586381991   -0.389054169649
 H    1.141120125929    4.787376381991   -0.209884169649
 C    0.569060125929    2.919426381991   -1.326634169649
 H    1.358060125929    2.816856381991   -2.066804169649
 N   -0.516039874071    3.542906381991    0.462415830351
 H   -0.907909874071    4.116416381991    1.206495830351
 C   -1.081399874071    2.399376381991   -0.048954169649
 H   -1.947849874071    1.927546381991    0.429095830351
 N   -0.406879874071    1.975906381991   -1.121714169649
RB   -1.453489874071   -0.146213618009    1.641135830351
RB    1.464410125929    0.093206381991   -1.611044169649
 N    0.393261491546   -1.909748834393    1.084156468121
 C   -0.582689567923   -2.853276704780    1.289075500487
 H   -1.371688385608   -2.750700660239    2.029247221696
 C   -0.503618800214   -3.871430399040    0.351499122714
 H   -1.154755531281   -4.721220073542    0.172329152670
 N    0.502405218941   -3.476750471114   -0.499968189328
 H    0.894274283951   -4.050267488992   -1.244049928247
 C    1.067767624218   -2.333226718412    0.011404205903
 H    1.934228323265   -1.861397640716   -0.466655121845
