20

 C    0.482148838886    3.975665325556   -0.410671430792
 H    1.133278838886    4.825455325556   -0.231501430792
 C    0.561218838886    2.957505325556   -1.348251430792
 H    1.350218838886    2.854935325556   -2.088421430792
 N   -0.523881161114    3.580985325556    0.440798569208
 H   -0.915751161114    4.154495325556    1.184878569208
 C   -1.089241161114    2.437455325556   -0.070571430792
 H   -1.955691161114    1.965625325556    0.407478569208
 N   -0.414721161114    2.013985325556   -1.143331430792
RB   -1.461331161114   -0.108134674444    1.619518569208
RB    1.456568838886    0.131285325556   -1.632661430792
 N    0.420674874103   -2.042874001409    1.159731083138
 C   -0.555276185365   -2.986401871796    1.364650115504
 H   -1.344275003050   -2.883825827255    2.104821836713
 C   -0.476205417656   -4.004555566056    0.427073737732
 H   -1.127342148723   -4.854345240558    0.247903767687
 N    0.529818601498   -3.609875638130   -0.424393574311
 H    0.921687666509   -4.183392656008   -1.168475313229
 C    1.095181006776   -2.466351885428    0.086978820921
 H    1.961641705823   -1.994522807732   -0.391080506828
