20

 C    0.474307551842    4.013744269120   -0.432288691936
 H    1.125437551842    4.863534269120   -0.253118691936
 C    0.553377551842    2.995584269120   -1.369868691936
 H    1.342377551842    2.893014269120   -2.110038691936
 N   -0.531722448158    3.619064269120    0.419181308064
 H   -0.923592448158    4.192574269120    1.163261308064
 C   -1.097082448158    2.475534269120   -0.092188691936
 H   -1.963532448158    2.003704269120    0.385861308064
 N   -0.422562448158    2.052064269120   -1.164948691936
RB   -1.469172448158   -0.070055730880    1.597901308064
RB    1.448727551842    0.169364269120   -1.654278691936
 N    0.448088256661   -2.175999168425    1.235305698156
 C   -0.527862802807   -3.119527038812    1.440224730522
 H   -1.316861620493   -3.016950994271    2.180396451731
 C   -0.448792035099   -4.137680733072    0.502648352749
 H   -1.099928766165   -4.987470407574    0.323478382705
 N    0.557231984056   -3.743000805146   -0.348818959293
 H    0.949101049066   -4.316517823024   -1.092900698212
 C    1.122594389334   -2.599477052444    0.162553435938
 H    1.989055088380   -2.127647974748   -0.315505891811
