20

 C    0.458624977754    4.089902156249   -0.475523214223
 H    1.109754977754    4.939692156249   -0.296353214223
 C    0.537694977754    3.071742156249   -1.413103214223
 H    1.326694977754    2.969172156249   -2.153273214223
 N   -0.547405022246    3.695222156249    0.375946785777
 H   -0.939275022246    4.268732156249    1.120026785777
 C   -1.112765022246    2.551692156249   -0.135423214223
 H   -1.979215022246    2.079862156249    0.342626785777
 N   -0.438245022246    2.128222156249   -1.208183214223
RB   -1.484855022246    0.006102156249    1.554666785777
RB    1.433044977754    0.245522156249   -1.697513214223
 N    0.502915021776   -2.442249502457    1.386454928191
 C   -0.473036037692   -3.385777372844    1.591373960556
 H   -1.262034855377   -3.283201328303    2.331545681766
 C   -0.393965269983   -4.403931067104    0.653797582784
 H   -1.045102001050   -5.253720741606    0.474627612739
 N    0.612058749171   -4.009251139178   -0.197669729258
 H    1.003927814182   -4.582768157056   -0.941751468177
 C    1.177421154449   -2.865727386476    0.313702665973
 H    2.043881853496   -2.393898308779   -0.164356661776
