20

 C    0.454704334232    4.108941628031   -0.486331844795
 H    1.105834334232    4.958731628031   -0.307161844795
 C    0.533774334232    3.090781628031   -1.423911844795
 H    1.322774334232    2.988211628031   -2.164081844795
 N   -0.551325665768    3.714261628031    0.365138155205
 H   -0.943195665768    4.287771628031    1.109218155205
 C   -1.116685665768    2.570731628031   -0.146231844795
 H   -1.983135665768    2.098901628031    0.331818155205
 N   -0.442165665768    2.147261628031   -1.218991844795
RB   -1.488775665768    0.025141628031    1.543858155205
RB    1.429124334232    0.264561628031   -1.708321844795
 N    0.516621713055   -2.508812085965    1.424242235699
 C   -0.459329346413   -3.452339956351    1.629161268065
 H   -1.248328164098   -3.349763911811    2.369332989274
 C   -0.380258578704   -4.470493650612    0.691584890292
 H   -1.031395309771   -5.320283325114    0.512414920248
 N    0.625765440450   -4.075813722686   -0.159882421750
 H    1.017634505461   -4.649330740564   -0.903964160668
 C    1.191127845728   -2.932289969984    0.351489973482
 H    2.057588544775   -2.460460892287   -0.126569354267
