20

 C    0.439021760145    4.185099515160   -0.529566367082
 H    1.090151760145    5.034889515160   -0.350396367082
 C    0.518091760145    3.166939515160   -1.467146367082
 H    1.307091760145    3.064369515160   -2.207316367082
 N   -0.567008239855    3.790419515160    0.321903632918
 H   -0.958878239855    4.363929515160    1.065983632918
 C   -1.132368239855    2.646889515160   -0.189466367082
 H   -1.998818239855    2.175059515160    0.288583632918
 N   -0.457848239855    2.223419515160   -1.262226367082
RB   -1.504458239855    0.101299515160    1.500623632918
RB    1.413441760145    0.340719515160   -1.751556367082
 N    0.571448478171   -2.775062419996    1.575391465734
 C   -0.404502581298   -3.718590290383    1.780310498100
 H   -1.193501398983   -3.616014245843    2.520482219309
 C   -0.325431813589   -4.736743984644    0.842734120327
 H   -0.976568544656   -5.586533659146    0.663564150283
 N    0.680592205566   -4.342064056718   -0.008733191715
 H    1.072461270576   -4.915581074596   -0.752814930633
 C    1.245954610843   -3.198540304016    0.502639203517
 H    2.112415309890   -2.726711226319    0.024579875768
