20

 C    0.435101116623    4.204138986942   -0.540374997653
 H    1.086231116623    5.053928986942   -0.361204997653
 C    0.514171116623    3.185978986942   -1.477954997653
 H    1.303171116623    3.083408986942   -2.218124997653
 N   -0.570928883377    3.809458986942    0.311095002347
 H   -0.962798883377    4.382968986942    1.055175002347
 C   -1.136288883377    2.665928986942   -0.200274997653
 H   -2.002738883377    2.194098986942    0.277775002347
 N   -0.461768883377    2.242458986942   -1.273034997653
RB   -1.508378883377    0.120338986942    1.489815002347
RB    1.409521116623    0.359758986942   -1.762364997653
 N    0.585155169450   -2.841625003504    1.613178773243
 C   -0.390795890019   -3.785152873891    1.818097805609
 H   -1.179794707704   -3.682576829351    2.558269526818
 C   -0.311725122310   -4.803306568152    0.880521427836
 H   -0.962861853377   -5.653096242654    0.701351457792
 N    0.694298896844   -4.408626640226    0.029054115794
 H    1.086167961855   -4.982143658104   -0.715027623125
 C    1.259661302122   -3.265102887524    0.540426511025
 H    2.126122001169   -2.793273809827    0.062367183276
