20

 C    0.431180473101    4.223178458724   -0.551183628225
 H    1.082310473101    5.072968458724   -0.372013628225
 C    0.510250473101    3.205018458724   -1.488763628225
 H    1.299250473101    3.102448458724   -2.228933628225
 N   -0.574849526899    3.828498458724    0.300286371775
 H   -0.966719526899    4.402008458724    1.044366371775
 C   -1.140209526899    2.684968458724   -0.211083628225
 H   -2.006659526899    2.213138458724    0.266966371775
 N   -0.465689526899    2.261498458724   -1.283843628225
RB   -1.512299526899    0.139378458724    1.479006371775
RB    1.405600473101    0.378798458724   -1.773173628225
 N    0.598861860728   -2.908187587012    1.650966080752
 C   -0.377089198740   -3.851715457399    1.855885113117
 H   -1.166088016425   -3.749139412859    2.596056834327
 C   -0.298018431031   -4.869869151660    0.918308735345
 H   -0.949155162098   -5.719658826162    0.739138765300
 N    0.708005588123   -4.475189223734    0.066841423302
 H    1.099874653134   -5.048706241612   -0.677240315616
 C    1.273367993401   -3.331665471032    0.578213818534
 H    2.139828692448   -2.859836393335    0.100154490785
