20

 C    0.427259829579    4.242217930507   -0.561992258797
 H    1.078389829579    5.092007930507   -0.382822258797
 C    0.506329829579    3.224057930507   -1.499572258797
 H    1.295329829579    3.121487930507   -2.239742258797
 N   -0.578770170421    3.847537930507    0.289477741203
 H   -0.970640170421    4.421047930507    1.033557741203
 C   -1.144130170421    2.704007930507   -0.221892258797
 H   -2.010580170421    2.232177930507    0.256157741203
 N   -0.469610170421    2.280537930507   -1.294652258797
RB   -1.516220170421    0.158417930507    1.468197741203
RB    1.401679829579    0.397837930507   -1.783982258797
 N    0.612568552007   -2.974750170520    1.688753388260
 C   -0.363382507461   -3.918278040907    1.893672420626
 H   -1.152381325146   -3.815701996366    2.633844141835
 C   -0.284311739752   -4.936431735168    0.956096042853
 H   -0.935448470819   -5.786221409670    0.776926072809
 N    0.721712279402   -4.541751807242    0.104628730811
 H    1.113581344413   -5.115268825120   -0.639453008107
 C    1.287074684680   -3.398228054540    0.616001126043
 H    2.153535383727   -2.926398976843    0.137941798294
