20

 C    0.399815324926    4.375494232982   -0.637652672799
 H    1.050945324926    5.225284232982   -0.458482672799
 C    0.478885324926    3.357334232982   -1.575232672799
 H    1.267885324926    3.254764232982   -2.315402672799
 N   -0.606214675074    3.980814232982    0.213817327201
 H   -0.998084675074    4.554324232982    0.957897327201
 C   -1.171574675074    2.837284232982   -0.297552672799
 H   -2.038024675074    2.365454232982    0.180497327201
 N   -0.497054675074    2.413814232982   -1.370312672799
RB   -1.543664675074    0.291694232982    1.392537327201
RB    1.374235324926    0.531114232982   -1.859642672799
 N    0.708515390959   -3.440688255076    1.953264540821
 C   -0.267435668509   -4.384216125463    2.158183573187
 H   -1.056434486194   -4.281640080922    2.898355294396
 C   -0.188364900800   -5.402369819724    1.220607195414
 H   -0.839501631867   -6.252159494225    1.041437225370
 N    0.817659118354   -5.007689891797    0.369139883372
 H    1.209528183365   -5.581206909675   -0.374941855546
 C    1.383021523632   -3.864166139095    0.880512278604
 H    2.249482222678   -3.392337061399    0.402452950855
