20

 C    0.395894681404    4.394533704764   -0.648461303371
 H    1.047024681404    5.244323704764   -0.469291303371
 C    0.474964681404    3.376373704764   -1.586041303371
 H    1.263964681404    3.273803704764   -2.326211303371
 N   -0.610135318596    3.999853704764    0.203008696629
 H   -1.002005318596    4.573363704764    0.947088696629
 C   -1.175495318596    2.856323704764   -0.308361303371
 H   -2.041945318596    2.384493704764    0.169688696629
 N   -0.500975318596    2.432853704764   -1.381121303371
RB   -1.547585318596    0.310733704764    1.381728696629
RB    1.370314681404    0.550153704764   -1.870451303371
 N    0.722222082238   -3.507250838584    1.991051848330
 C   -0.253728977230   -4.450778708971    2.195970880696
 H   -1.042727794916   -4.348202664430    2.936142601905
 C   -0.174658209522   -5.468932403232    1.258394502923
 H   -0.825794940589   -6.318722077733    1.079224532879
 N    0.831365809633   -5.074252475305    0.406927190881
 H    1.223234874643   -5.647769493183   -0.337154548038
 C    1.396728214911   -3.930728722603    0.918299586112
 H    2.263188913957   -3.458899644907    0.440240258364
