20

 C    0.368450176751    4.527810007240   -0.724121717373
 H    1.019580176751    5.377600007240   -0.544951717373
 C    0.447520176751    3.509650007240   -1.661701717373
 H    1.236520176751    3.407080007240   -2.401871717373
 N   -0.637579823249    4.133130007240    0.127348282627
 H   -1.029449823249    4.706640007240    0.871428282627
 C   -1.202939823249    2.989600007240   -0.384021717373
 H   -2.069389823249    2.517770007240    0.094028282627
 N   -0.528419823249    2.566130007240   -1.456781717373
RB   -1.575029823249    0.444010007240    1.306068282627
RB    1.342870176751    0.683430007240   -1.946111717373
 N    0.818168921190   -3.973188923140    2.255563000891
 C   -0.157782138278   -4.916716793527    2.460482033257
 H   -0.946780955964   -4.814140748986    3.200653754466
 C   -0.078711370570   -5.934870487787    1.522905655484
 H   -0.729848101637   -6.784660162289    1.343735685440
 N    0.927312648585   -5.540190559861    0.671438343442
 H    1.319181713595   -6.113707577739   -0.072643395477
 C    1.492675053863   -4.396666807159    1.182810738673
 H    2.359135752909   -3.924837729463    0.704751410924
