20

 C    0.364529533229    4.546849479022   -0.734930347945
 H    1.015659533229    5.396639479022   -0.555760347945
 C    0.443599533229    3.528689479022   -1.672510347945
 H    1.232599533229    3.426119479022   -2.412680347945
 N   -0.641500466771    4.152169479022    0.116539652055
 H   -1.033370466771    4.725679479022    0.860619652055
 C   -1.206860466771    3.008639479022   -0.394830347945
 H   -2.073310466771    2.536809479022    0.083219652055
 N   -0.532340466771    2.585169479022   -1.467590347945
RB   -1.578950466771    0.463049479022    1.295259652055
RB    1.338949533229    0.702469479022   -1.956920347945
 N    0.831875612469   -4.039751506648    2.293350308400
 C   -0.144075447000   -4.983279377035    2.498269340765
 H   -0.933074264685   -4.880703332494    3.238441061975
 C   -0.065004679291   -6.001433071295    1.560692962993
 H   -0.716141410358   -6.851222745797    1.381522992948
 N    0.941019339864   -5.606753143369    0.709225650950
 H    1.332888404874   -6.180270161247   -0.034856087968
 C    1.506381745141   -4.463229390667    1.220598046182
 H    2.372842444188   -3.991400312971    0.742538718433
