20

 C    0.360608889707    4.565888950805   -0.745738978516
 H    1.011738889707    5.415678950805   -0.566568978516
 C    0.439678889707    3.547728950805   -1.683318978516
 H    1.228678889707    3.445158950805   -2.423488978516
 N   -0.645421110293    4.171208950805    0.105731021484
 H   -1.037291110293    4.744718950805    0.849811021484
 C   -1.210781110293    3.027678950805   -0.405638978516
 H   -2.077231110293    2.555848950805    0.072411021484
 N   -0.536261110293    2.604208950805   -1.478398978516
RB   -1.582871110293    0.482088950805    1.284451021484
RB    1.335028889707    0.721508950805   -1.967728978516
 N    0.845582303748   -4.106314090156    2.331137615908
 C   -0.130368755721   -5.049841960543    2.536056648274
 H   -0.919367573406   -4.947265916002    3.276228369483
 C   -0.051297988012   -6.067995654803    1.598480270501
 H   -0.702434719079   -6.917785329305    1.419310300457
 N    0.954726031142   -5.673315726877    0.747012958459
 H    1.346595096153   -6.246832744755    0.002931219541
 C    1.520088436420   -4.529791974175    1.258385353691
 H    2.386549135467   -4.057962896479    0.780326025942
