20

 C    0.325323098010    4.737244196845   -0.843016653662
 H    0.976453098010    5.587034196845   -0.663846653662
 C    0.404393098010    3.719084196845   -1.780596653662
 H    1.193393098010    3.616514196845   -2.520766653662
 N   -0.680706901990    4.342564196845    0.008453346338
 H   -1.072576901990    4.916074196845    0.752533346338
 C   -1.246066901990    3.199034196845   -0.502916653662
 H   -2.112516901990    2.727204196845   -0.024866653662
 N   -0.571546901990    2.775564196845   -1.575676653662
RB   -1.618156901990    0.653444196845    1.187173346338
RB    1.299743098010    0.892864196845   -2.065006653662
 N    0.968942525257   -4.705377341727    2.671223383487
 C   -0.007008534211   -5.648905212114    2.876142415853
 H   -0.796007351896   -5.546329167573    3.616314137062
 C    0.072062233498   -6.667058906375    1.938566038080
 H   -0.579074497569   -7.516848580877    1.759396068035
 N    1.078086252652   -6.272378978449    1.087098726038
 H    1.469955317663   -6.845895996327    0.343016987119
 C    1.643448657930   -5.128855225747    1.598471121269
 H    2.509909356977   -4.657026148050    1.120411793520
