20

 C    0.313561167444    4.794362612191   -0.875442545377
 H    0.964691167444    5.644152612191   -0.696272545377
 C    0.392631167444    3.776202612191   -1.813022545377
 H    1.181631167444    3.673632612191   -2.553192545377
 N   -0.692468832556    4.399682612191   -0.023972545377
 H   -1.084338832556    4.973192612191    0.720107454623
 C   -1.257828832556    3.256152612191   -0.535342545377
 H   -2.124278832556    2.784322612191   -0.057292545377
 N   -0.583308832556    2.832682612191   -1.608102545377
RB   -1.629918832556    0.710562612191    1.154747454623
RB    1.287981167444    0.949982612191   -2.097432545377
 N    1.010062599094   -4.905065092251    2.784585306013
 C    0.034111539625   -5.848592962638    2.989504338379
 H   -0.754887278060   -5.746016918097    3.729676059588
 C    0.113182307334   -6.866746656899    2.051927960606
 H   -0.537954423733   -7.716536331400    1.872757990562
 N    1.119206326489   -6.472066728972    1.200460648564
 H    1.511075391499   -7.045583746851    0.456378909645
 C    1.684568731766   -5.328542976270    1.711833043795
 H    2.551029430813   -4.856713898574    1.233773716046
