20

 C    0.297878593356    4.870520499320   -0.918677067664
 H    0.949008593356    5.720310499320   -0.739507067664
 C    0.376948593356    3.852360499320   -1.856257067664
 H    1.165948593356    3.749790499320   -2.596427067664
 N   -0.708151406644    4.475840499320   -0.067207067664
 H   -1.100021406644    5.049350499320    0.676872932336
 C   -1.273511406644    3.332310499320   -0.578577067664
 H   -2.139961406644    2.860480499320   -0.100527067664
 N   -0.598991406644    2.908840499320   -1.651337067664
RB   -1.645601406644    0.786720499320    1.111512932336
RB    1.272298593356    1.026140499320   -2.140667067664
 N    1.064889364209   -5.171315426283    2.935734536048
 C    0.088938304741   -6.114843296670    3.140653568413
 H   -0.700060512944   -6.012267252129    3.880825289623
 C    0.168009072449   -7.132996990931    2.203077190641
 H   -0.483127658617   -7.982786665432    2.023907220596
 N    1.174033091604   -6.738317063004    1.351609878599
 H    1.565902156615   -7.311834080882    0.607528139680
 C    1.739395496882   -5.594793310302    1.862982273830
 H    2.605856195928   -5.122964232606    1.384922946081
