20

 C    0.290037306313    4.908599442885   -0.940294328808
 H    0.941167306313    5.758389442885   -0.761124328808
 C    0.369107306313    3.890439442885   -1.877874328808
 H    1.158107306313    3.787869442885   -2.618044328808
 N   -0.715992693687    4.513919442885   -0.088824328808
 H   -1.107862693687    5.087429442885    0.655255671192
 C   -1.281352693687    3.370389442885   -0.600194328808
 H   -2.147802693687    2.898559442885   -0.122144328808
 N   -0.606832693687    2.946919442885   -1.672954328808
RB   -1.653442693687    0.824799442885    1.089895671192
RB    1.264457306313    1.064219442885   -2.162284328808
 N    1.092302746767   -5.304440593299    3.011309151065
 C    0.116351687298   -6.247968463686    3.216228183431
 H   -0.672647130387   -6.145392419145    3.956399904640
 C    0.195422455007   -7.266122157946    2.278651805658
 H   -0.455714276060   -8.115911832448    2.099481835614
 N    1.201446474162   -6.871442230020    1.427184493616
 H    1.593315539172   -7.444959247898    0.683102754697
 C    1.766808879439   -5.727918477318    1.938556888847
 H    2.633269578486   -5.256089399622    1.460497561099
