20

 C    0.286116662791    4.927638914667   -0.951102959380
 H    0.937246662791    5.777428914667   -0.771932959380
 C    0.365186662791    3.909478914667   -1.888682959380
 H    1.154186662791    3.806908914667   -2.628852959380
 N   -0.719913337209    4.532958914667   -0.099632959380
 H   -1.111783337209    5.106468914667    0.644447040620
 C   -1.285273337209    3.389428914667   -0.611002959380
 H   -2.151723337209    2.917598914667   -0.132952959380
 N   -0.610753337209    2.965958914667   -1.683762959380
RB   -1.657363337209    0.843838914667    1.079087040620
RB    1.260536662791    1.083258914667   -2.173092959380
 N    1.106009438046   -5.371003176807    3.049096458574
 C    0.130058378577   -6.314531047194    3.254015490940
 H   -0.658940439108   -6.211955002653    3.994187212149
 C    0.209129146286   -7.332684741454    2.316439113167
 H   -0.442007584781   -8.182474415956    2.137269143123
 N    1.215153165441   -6.938004813528    1.464971801125
 H    1.607022230451   -7.511521831406    0.720890062206
 C    1.780515570718   -5.794481060826    1.976344196356
 H    2.646976269765   -5.322651983130    1.498284868607
