20

 C    0.270434088703    5.003796801796   -0.994337481666
 H    0.921564088703    5.853586801796   -0.815167481666
 C    0.349504088703    3.985636801796   -1.931917481666
 H    1.138504088703    3.883066801796   -2.672087481666
 N   -0.735595911297    4.609116801796   -0.142867481666
 H   -1.127465911297    5.182626801796    0.601212518334
 C   -1.300955911297    3.465586801796   -0.654237481666
 H   -2.167405911297    2.993756801796   -0.176187481666
 N   -0.626435911297    3.042116801796   -1.726997481666
RB   -1.673045911297    0.919996801796    1.035852518334
RB    1.244854088703    1.159416801796   -2.216327481666
 N    1.160836203161   -5.637253510839    3.200245688608
 C    0.184885143693   -6.580781381226    3.405164720974
 H   -0.604113673993   -6.478205336685    4.145336442184
 C    0.263955911401   -7.598935075486    2.467588343202
 H   -0.387180819666   -8.448724749988    2.288418373157
 N    1.269979930556   -7.204255147560    1.616121031159
 H    1.661848995566   -7.777772165438    0.872039292241
 C    1.835342335834   -6.060731394858    2.127493426391
 H    2.701803034880   -5.588902317162    1.649434098642
