20

 C    0.246910227572    5.118033632489   -1.059189265097
 H    0.898040227572    5.967823632489   -0.880019265097
 C    0.325980227572    4.099873632489   -1.996769265097
 H    1.114980227572    3.997303632489   -2.736939265097
 N   -0.759119772428    4.723353632489   -0.207719265097
 H   -1.150989772428    5.296863632489    0.536360734903
 C   -1.324479772428    3.579823632489   -0.719089265097
 H   -2.190929772428    3.107993632489   -0.241039265097
 N   -0.649959772428    3.156353632489   -1.791849265097
RB   -1.696569772428    1.034233632489    0.971000734903
RB    1.221330227572    1.273653632489   -2.281179265097
 N    1.243076350834   -6.036629011886    3.426969533661
 C    0.267125291366   -6.980156882273    3.631888566027
 H   -0.521873526320   -6.877580837733    4.372060287236
 C    0.346196059074   -7.998310576534    2.694312188254
 H   -0.304940671992   -8.848100251036    2.515142218210
 N    1.352220078229   -7.603630648608    1.842844876212
 H    1.744089143240   -8.177147666486    1.098763137293
 C    1.917582483507   -6.460106895906    2.354217271443
 H    2.784043182553   -5.988277818209    1.876157943694
