20

 C    0.219465722918    5.251309934965   -1.134849679099
 H    0.870595722918    6.101099934965   -0.955679679099
 C    0.298535722918    4.233149934965   -2.072429679099
 H    1.087535722918    4.130579934965   -2.812599679099
 N   -0.786564277082    4.856629934965   -0.283379679099
 H   -1.178434277082    5.430139934965    0.460700320901
 C   -1.351924277082    3.713099934965   -0.794749679099
 H   -2.218374277082    3.241269934965   -0.316699679099
 N   -0.677404277082    3.289629934965   -1.867509679099
RB   -1.724014277082    1.167509934965    0.895340320901
RB    1.193885722918    1.406929934965   -2.356839679099
 N    1.339023189786   -6.502567096442    3.691480686222
 C    0.363072130318   -7.446094966829    3.896399718588
 H   -0.425926687368   -7.343518922288    4.636571439797
 C    0.442142898026   -8.464248661090    2.958823340815
 H   -0.208993833041   -9.314038335591    2.779653370771
 N    1.448166917181   -8.069568733164    2.107356028773
 H    1.840035982191   -8.643085751042    1.363274289854
 C    2.013529322459   -6.926044980462    2.618728424004
 H    2.879990021505   -6.454215902765    2.140669096255
