20

 C    0.211624435875    5.289388878529   -1.156466940243
 H    0.862754435875    6.139178878529   -0.977296940243
 C    0.290694435875    4.271228878529   -2.094046940243
 H    1.079694435875    4.168658878529   -2.834216940243
 N   -0.794405564125    4.894708878529   -0.304996940243
 H   -1.186275564125    5.468218878529    0.439083059757
 C   -1.359765564125    3.751178878529   -0.816366940243
 H   -2.226215564125    3.279348878529   -0.338316940243
 N   -0.685245564125    3.327708878529   -1.889126940243
RB   -1.731855564125    1.205588878529    0.873723059757
RB    1.186044435875    1.445008878529   -2.378456940243
 N    1.366436572344   -6.635692263458    3.767055301239
 C    0.390485512875   -7.579220133845    3.971974333605
 H   -0.398513304810   -7.476644089304    4.712146054814
 C    0.469556280584   -8.597373828106    3.034397955832
 H   -0.181580450483   -9.447163502607    2.855227985788
 N    1.475580299739   -8.202693900179    2.182930643790
 H    1.867449364749   -8.776210918058    1.438848904872
 C    2.040942705016   -7.059170147477    2.694303039022
 H    2.907403404063   -6.587341069781    2.216243711273
