20

 C    0.192021218265    5.384586237440   -1.210510093101
 H    0.843151218265    6.234376237440   -1.031340093101
 C    0.271091218265    4.366426237440   -2.148090093101
 H    1.060091218265    4.263856237440   -2.888260093101
 N   -0.814008781735    4.989906237440   -0.359040093101
 H   -1.205878781735    5.563416237440    0.385039906899
 C   -1.379368781735    3.846376237440   -0.870410093101
 H   -2.245818781735    3.374546237440   -0.392360093101
 N   -0.704848781735    3.422906237440   -1.943170093101
RB   -1.751458781735    1.300786237440    0.819679906899
RB    1.166441218265    1.540206237440   -2.432500093101
 N    1.434970028738   -6.968505180998    3.955991838783
 C    0.459018969270   -7.912033051385    4.160910871149
 H   -0.329979848416   -7.809457006844    4.901082592358
 C    0.538089736978   -8.930186745645    3.223334493376
 H   -0.113046994089   -9.779976420147    3.044164523332
 N    1.544113756133   -8.535506817719    2.371867181334
 H    1.935982821143   -9.109023835597    1.627785442415
 C    2.109476161411   -7.391983065017    2.883239576565
 H    2.975936860457   -6.920153987321    2.405180248816
