20

 C    0.188100574743    5.403625709222   -1.221318723673
 H    0.839230574743    6.253415709222   -1.042148723673
 C    0.267170574743    4.385465709222   -2.158898723673
 H    1.056170574743    4.282895709222   -2.899068723673
 N   -0.817929425257    5.008945709222   -0.369848723673
 H   -1.209799425257    5.582455709222    0.374231276327
 C   -1.383289425257    3.865415709222   -0.881218723673
 H   -2.249739425257    3.393585709222   -0.403168723673
 N   -0.708769425257    3.441945709222   -1.953978723673
RB   -1.755379425257    1.319825709222    0.808871276327
RB    1.162520574743    1.559245709222   -2.443308723673
 N    1.448676720017   -7.035067764506    3.993779146291
 C    0.472725660548   -7.978595634893    4.198698178657
 H   -0.316273157137   -7.876019590352    4.938869899866
 C    0.551796428257   -8.996749329153    3.261121800885
 H   -0.099340302810   -9.846539003655    3.081951830840
 N    1.557820447412   -8.602069401227    2.409654488842
 H    1.949689512422   -9.175586419105    1.665572749924
 C    2.123182852689   -7.458545648525    2.921026884074
 H    2.989643551736   -6.986716570829    2.442967556325
