11

 H   -0.626871315578    1.357282084613    3.377628901403
 H   -0.067681315578   -0.276477915387    2.947098901403
 H   -1.676691315578    0.290132084613    2.415258901403
 C   -0.631021315578    0.596902084613    2.580208901403
 S    0.123358684422    1.295712084613    1.047948901403
LI   -0.043101315578   -0.452717915387   -0.366151098597
 S   -0.116924069107   -1.228122919310   -0.993285279576
 C    0.637454399000   -0.529320088260   -2.525548487733
 H    0.633309101947   -1.289697748205   -3.322956799935
 H    0.074123918939    0.344056585951   -2.892436178556
 H    1.683133722688   -0.222560605246   -2.360593835806
