11

 H   -0.620001816766    1.429436583043    3.435986214094
 H   -0.060811816766   -0.204323416957    3.005456214094
 H   -1.669821816766    0.362286583043    2.473616214094
 C   -0.624151816766    0.669056583043    2.638566214094
 S    0.130228183234    1.367866583043    1.106306214094
LI   -0.036231816766   -0.380563416957   -0.307793785906
 S   -0.124819121001   -1.311049421666   -1.060354803080
 C    0.629559347106   -0.612246590616   -2.592618011238
 H    0.625414050054   -1.372624250561   -3.390026323440
 H    0.066228867046    0.261130083596   -2.959505702061
 H    1.675238670794   -0.305487107602   -2.427663359311
