11

 H   -0.616567067360    1.465513832257    3.465164870440
 H   -0.057377067360   -0.168246167743    3.034634870440
 H   -1.666387067360    0.398363832257    2.502794870440
 C   -0.620717067360    0.705133832257    2.667744870440
 S    0.133662932640    1.403943832257    1.135484870440
LI   -0.032797067360   -0.344486167743   -0.278615129560
 S   -0.128766646948   -1.352512672843   -1.093889564832
 C    0.625611821160   -0.653709841794   -2.626152772990
 H    0.621466524107   -1.414087501739   -3.423561085192
 H    0.062281341099    0.219666832418   -2.993040463813
 H    1.671291144848   -0.346950358779   -2.461198121063
