11

 H   -0.599393320329    1.645900078330    3.611058152168
 H   -0.040203320329    0.012140078330    3.180528152168
 H   -1.649213320329    0.578750078330    2.648688152168
 C   -0.603543320329    0.885520078330    2.813638152168
 S    0.150836679671    1.584330078330    1.281378152168
LI   -0.015623320329   -0.164099921670   -0.132721847832
 S   -0.148504276681   -1.559828928732   -1.261563373593
 C    0.605874191426   -0.861026097682   -2.793826581751
 H    0.601728894373   -1.621403757627   -3.591234893953
 H    0.042543711365    0.012350576529   -3.160714272574
 H    1.651553515114   -0.554266614668   -2.628871929824
