11

 H   -0.592523821516    1.718054576760    3.669415464859
 H   -0.033333821516    0.084294576760    3.238885464859
 H   -1.642343821516    0.650904576760    2.707045464859
 C   -0.596673821516    0.957674576760    2.871995464859
 S    0.157706178484    1.656484576760    1.339735464859
LI   -0.008753821516   -0.091945423240   -0.074364535141
 S   -0.156399328575   -1.642755431087   -1.328632897098
 C    0.597979139533   -0.943952600038   -2.860896105255
 H    0.593833842480   -1.704330259983   -3.658304417457
 H    0.034648659472   -0.070575925826   -3.227783796078
 H    1.643658463221   -0.637193117024   -2.695941453328
