11

 H   -0.585654322704    1.790209075189    3.727772777550
 H   -0.026464322704    0.156449075189    3.297242777550
 H   -1.635474322704    0.723059075189    2.765402777550
 C   -0.589804322704    1.029829075189    2.930352777550
 S    0.164575677296    1.728639075189    1.398092777550
LI   -0.001884322704   -0.019790924811   -0.016007222450
 S   -0.164294380468   -1.725681933443   -1.395702420602
 C    0.590084087639   -1.026879102393   -2.927965628760
 H    0.585938790586   -1.787256762338   -3.725373940962
 H    0.026753607578   -0.153502428182   -3.294853319583
 H    1.635763411327   -0.720119619379   -2.763010976833
