11

 H   -0.575350074485    1.898440822833    3.815308746587
 H   -0.016160074485    0.264680822833    3.384778746587
 H   -1.625170074485    0.831290822833    2.852938746587
 C   -0.579500074485    1.138060822833    3.017888746587
 S    0.174879925515    1.836870822833    1.485628746587
LI    0.008419925515    0.088440822833    0.071528746587
 S   -0.176136958308   -1.850071686976   -1.496306705859
 C    0.578241509799   -1.151268855926   -3.028569914016
 H    0.574096212746   -1.911646515871   -3.825978226218
 H    0.014911029738   -0.277892181715   -3.395457604839
 H    1.623920833487   -0.844509372912   -2.863615262089
