11

 H   -0.561611076861    2.042749819691    3.932023371970
 H   -0.002421076861    0.408989819691    3.501493371970
 H   -1.611431076861    0.975599819691    2.969653371970
 C   -0.565761076861    1.282369819691    3.134603371970
 S    0.188618923139    1.981179819691    1.602343371970
LI    0.022158923139    0.232749819691    0.188243371970
 S   -0.191927062095   -2.015924691687   -1.630445752868
 C    0.562451406012   -1.317121860637   -3.162708961025
 H    0.558306108959   -2.077499520582   -3.960117273227
 H   -0.000879074049   -0.443745186426   -3.529596651848
 H    1.608130729700   -1.010362377623   -2.997754309098
