11

 H   -0.554741578048    2.114904318121    3.990380684661
 H    0.004448421952    0.481144318121    3.559850684661
 H   -1.604561578048    1.047754318121    3.028010684661
 C   -0.558891578048    1.354524318121    3.192960684661
 S    0.195488421952    2.053334318121    1.660700684661
LI    0.029028421952    0.304904318121    0.246600684661
 S   -0.199822113989   -2.098851194042   -1.697515276372
 C    0.554556354119   -1.400048362993   -3.229778484530
 H    0.550411057066   -2.160426022938   -4.027186796732
 H   -0.008774125942   -0.526671688781   -3.596666175353
 H    1.600235677807   -1.093288879979   -3.064823832603
