11

 H   -0.537567831017    2.295290564194    4.136273966389
 H    0.021622168983    0.661530564194    3.705743966389
 H   -1.587387831017    1.228140564194    3.173903966389
 C   -0.541717831017    1.534910564194    3.338853966389
 S    0.212662168983    2.233720564194    1.806593966389
LI    0.046202168983    0.485290564194    0.392493966389
 S   -0.219559743722   -2.306167449931   -1.865189085133
 C    0.534818724385   -1.607364618881   -3.397452293291
 H    0.530673427332   -2.367742278826   -4.194860605493
 H   -0.028511755676   -0.733987944670   -3.764339984114
 H    1.580498048073   -1.300605135867   -3.232497641364
