11

 H   -0.527263582799    2.403522311838    4.223809935426
 H    0.031926417201    0.769762311838    3.793279935426
 H   -1.577083582799    1.336372311838    3.261439935426
 C   -0.531413582799    1.643142311838    3.426389935426
 S    0.222966417201    2.341952311838    1.894129935426
LI    0.056506417201    0.593522311838    0.480029935426
 S   -0.231402321563   -2.430557203464   -1.965793370390
 C    0.522976146545   -1.731754372414   -3.498056578547
 H    0.518830849492   -2.492132032359   -4.295464890749
 H   -0.040354333516   -0.858377698203   -3.864944269370
 H    1.568655470233   -1.424994889400   -3.333101926620
