11

 H   -0.516959334580    2.511754059482    4.311345904463
 H    0.042230665420    0.877994059482    3.880815904463
 H   -1.566779334580    1.444604059482    3.348975904463
 C   -0.521109334580    1.751374059482    3.513925904463
 S    0.233270665420    2.450184059482    1.981665904463
LI    0.066810665420    0.701754059482    0.567565904463
 S   -0.243244899403   -2.554946956997   -2.066397655647
 C    0.511133568705   -1.856144125948   -3.598660863804
 H    0.506988271652   -2.616521785893   -4.396069176006
 H   -0.052196911356   -0.982767451736   -3.965548554627
 H    1.556812892393   -1.549384642934   -3.433706211877
