11

 H   -0.513524585174    2.547831308696    4.340524560809
 H    0.045665414826    0.914071308696    3.909994560809
 H   -1.563344585174    1.480681308696    3.378154560809
 C   -0.517674585174    1.787451308696    3.543104560809
 S    0.236705414826    2.486261308696    2.010844560809
LI    0.070245414826    0.737831308696    0.596744560809
 S   -0.247192425350   -2.596410208175   -2.099932417399
 C    0.507186042758   -1.897607377125   -3.632195625556
 H    0.503040745705   -2.657985037070   -4.429603937758
 H   -0.056144437303   -1.024230702914   -3.999083316379
 H    1.552865366446   -1.590847894111   -3.467240973629
