11

 H   -0.510089835768    2.583908557911    4.369703217155
 H    0.049100164232    0.950148557911    3.939173217155
 H   -1.559909835768    1.516758557911    3.407333217155
 C   -0.514239835768    1.823528557911    3.572283217155
 S    0.240140164232    2.522338557911    2.040023217155
LI    0.073680164232    0.773908557911    0.625923217155
 S   -0.251139951296   -2.637873459353   -2.133467179151
 C    0.503238516811   -1.939070628303   -3.665730387308
 H    0.499093219758   -2.699448288248   -4.463138699511
 H   -0.060091963250   -1.065693954092   -4.032618078132
 H    1.548917840499   -1.632311145289   -3.500775735382
