11

 H   -0.496350838143    2.728217554769    4.486417842537
 H    0.062839161857    1.094457554769    4.055887842537
 H   -1.546170838143    1.661067554769    3.524047842537
 C   -0.500500838143    1.967837554769    3.688997842537
 S    0.253879161857    2.666647554769    2.156737842537
LI    0.087419161857    0.918217554769    0.742637842537
 S   -0.266930055083   -2.803726464064   -2.267606226160
 C    0.487448413024   -2.104923633014   -3.799869434317
 H    0.483303115971   -2.865301292959   -4.597277746519
 H   -0.075882067037   -1.231546958802   -4.166757125140
 H    1.533127736712   -1.798164150000   -3.634914782390
