11

 H   -0.492916088737    2.764294803984    4.515596498883
 H    0.066273911263    1.130534803984    4.085066498883
 H   -1.542736088737    1.697144803984    3.553226498883
 C   -0.497066088737    2.003914803984    3.718176498883
 S    0.257313911263    2.702724803984    2.185916498883
LI    0.090853911263    0.954294803984    0.771816498883
 S   -0.270877581030   -2.845189715241   -2.301140987912
 C    0.483500887077   -2.146386884192   -3.833404196070
 H    0.479355590025   -2.906764544137   -4.630812508272
 H   -0.079829592984   -1.273010209980   -4.200291886893
 H    1.529180210765   -1.839627401178   -3.668449544143
