11

 H   -0.489481339331    2.800372053199    4.544775155228
 H    0.069708660669    1.166612053199    4.114245155228
 H   -1.539301339331    1.733222053199    3.582405155228
 C   -0.493631339331    2.039992053199    3.747355155228
 S    0.260748660669    2.738802053199    2.215095155228
LI    0.094288660669    0.990372053199    0.800995155228
 S   -0.274825106977   -2.886652966419   -2.334675749664
 C    0.479553361131   -2.187850135369   -3.866938957822
 H    0.475408064078   -2.948227795314   -4.664347270024
 H   -0.083777118930   -1.314473461158   -4.233826648645
 H    1.525232684819   -1.881090652355   -3.701984305895
