11

 H   -0.475742341706    2.944681050057    4.661489780611
 H    0.083447658294    1.310921050057    4.230959780611
 H   -1.525562341706    1.877531050057    3.699119780611
 C   -0.479892341706    2.184301050057    3.864069780611
 S    0.274487658294    2.883111050057    2.331809780611
LI    0.108027658294    1.134681050057    0.917709780611
 S   -0.290615210764   -3.052505971130   -2.468814796673
 C    0.463763257344   -2.353703140080   -4.001078004831
 H    0.459617960291   -3.114080800025   -4.798486317033
 H   -0.099567222717   -1.480326465869   -4.367965695654
 H    1.509442581032   -2.046943657066   -3.836123352904
