11

 H   -0.472307592300    2.980758299272    4.690668436957
 H    0.086882407700    1.346998299272    4.260138436957
 H   -1.522127592300    1.913608299272    3.728298436957
 C   -0.476457592300    2.220378299272    3.893248436957
 S    0.277922407700    2.919188299272    2.360988436957
LI    0.111462407700    1.170758299272    0.946888436957
 S   -0.294562736710   -3.093969222308   -2.502349558425
 C    0.459815731397   -2.395166391258   -4.034612766583
 H    0.455670434344   -3.155544051203   -4.832021078785
 H   -0.103514748664   -1.521789717047   -4.401500457406
 H    1.505495055085   -2.088406908244   -3.869658114656
