11

 H   -0.458568594675    3.125067296130    4.807383062339
 H    0.100621405325    1.491307296130    4.376853062339
 H   -1.508388594675    2.057917296130    3.845013062339
 C   -0.462718594675    2.364687296130    4.009963062339
 S    0.291661405325    3.063497296130    2.477703062339
LI    0.125201405325    1.315067296130    1.063603062339
 S   -0.310352840497   -3.259822227019   -2.636488605434
 C    0.444025627610   -2.561019395969   -4.168751813592
 H    0.439880330557   -3.321397055914   -4.966160125794
 H   -0.119304852451   -1.687642721757   -4.535639504415
 H    1.489704951298   -2.254259912955   -4.003797161665
