11

 H   -0.455133845269    3.161144545345    4.836561718685
 H    0.104056154731    1.527384545345    4.406031718685
 H   -1.504953845269    2.093994545345    3.874191718685
 C   -0.459283845269    2.400764545345    4.039141718685
 S    0.295096154731    3.099574545345    2.506881718685
LI    0.128636154731    1.351144545345    1.092781718685
 S   -0.314300366444   -3.301285478197   -2.670023367187
 C    0.440078101663   -2.602482647147   -4.202286575344
 H    0.435932804610   -3.362860307092   -4.999694887546
 H   -0.123252378398   -1.729105972935   -4.569174266167
 H    1.485757425351   -2.295723164133   -4.037331923417
