11

 H   -0.448264346456    3.233299043774    4.894919031376
 H    0.110925653544    1.599539043774    4.464389031376
 H   -1.498084346456    2.166149043774    3.932549031376
 C   -0.452414346456    2.472919043774    4.097499031376
 S    0.301965653544    3.171729043774    2.565239031376
LI    0.135505653544    1.423299043774    1.151139031376
 S   -0.322195418338   -3.384211980552   -2.737092890691
 C    0.432183049770   -2.685409149502   -4.269356098848
 H    0.428037752717   -3.445786809447   -5.066764411050
 H   -0.131147430291   -1.812032475291   -4.636243789671
 H    1.477862373458   -2.378649666488   -4.104401446921
