11

 H   -0.444829597050    3.269376292989    4.924097687722
 H    0.114360402950    1.635616292989    4.493567687722
 H   -1.494649597050    2.202226292989    3.961727687722
 C   -0.448979597050    2.508996292989    4.126677687722
 S    0.305400402950    3.207806292989    2.594417687722
LI    0.138940402950    1.459376292989    1.180317687722
 S   -0.326142944284   -3.425675231730   -2.770627652443
 C    0.428235523823   -2.726872400680   -4.302890860601
 H    0.424090226770   -3.487250060625   -5.100299172803
 H   -0.135094956238   -1.853495726468   -4.669778551424
 H    1.473914847511   -2.420112917666   -4.137936208674
