11

 H   -0.427655850019    3.449762539062    5.069990969450
 H    0.131534149981    1.816002539062    4.639460969450
 H   -1.477475850019    2.382612539062    4.107620969450
 C   -0.431805850019    2.689382539062    4.272570969450
 S    0.322574149981    3.388192539062    2.740310969450
LI    0.156114149981    1.639762539062    1.326210969450
 S   -0.345880574018   -3.632991487618   -2.938301461204
 C    0.408497894089   -2.934188656569   -4.470564669362
 H    0.404352597037   -3.694566316514   -5.267972981564
 H   -0.154832585971   -2.060811982357   -4.837452360185
 H    1.454177217777   -2.627429173554   -4.305610017435
