11

 H   -0.407047353582    3.666226034350    5.245062907524
 H    0.152142646418    2.032466034350    4.814532907524
 H   -1.456867353582    2.599076034350    4.282692907524
 C   -0.411197353582    2.905846034350    4.447642907524
 S    0.343182646418    3.604656034350    2.915382907524
LI    0.176722646418    1.856226034350    1.501282907524
 S   -0.369565729698   -3.881770994685   -3.139510031718
 C    0.384812738409   -3.182968163635   -4.671773239875
 H    0.380667441356   -3.943345823580   -5.469181552077
 H   -0.178517741652   -2.309591489423   -5.038660930698
 H    1.430492062097   -2.876208680621   -4.506818587948
