11

 H   -0.396743105363    3.774457781994    5.332598876561
 H    0.162446894637    2.140697781994    4.902068876561
 H   -1.446563105363    2.707307781994    4.370228876561
 C   -0.400893105363    3.014077781994    4.535178876561
 S    0.353486894637    3.712887781994    3.002918876561
LI    0.187026894637    1.964457781994    1.588818876561
 S   -0.381408307538   -4.006160748218   -3.240114316974
 C    0.372970160569   -3.307357917168   -4.772377525132
 H    0.368824863516   -4.067735577113   -5.569785837334
 H   -0.190360319492   -2.433981242957   -5.139265215955
 H    1.418649484257   -3.000598434154   -4.607422873205
