11

 H   -0.393308355957    3.810535031208    5.361777532906
 H    0.165881644043    2.176775031208    4.931247532906
 H   -1.443128355957    2.743385031208    4.399407532906
 C   -0.397458355957    3.050155031208    4.564357532906
 S    0.356921644043    3.748965031208    3.032097532906
LI    0.190461644043    2.000535031208    1.617997532906
 S   -0.385355833485   -4.047623999396   -3.273649078726
 C    0.369022634622   -3.348821168346   -4.805912286884
 H    0.364877337569   -4.109198828291   -5.603320599086
 H   -0.194307845439   -2.475444494134   -5.172799977707
 H    1.414701958310   -3.042061685332   -4.640957634957
