11

 H   -0.389873606551    3.846612280423    5.390956189252
 H    0.169316393449    2.212852280423    4.960426189252
 H   -1.439693606551    2.779462280423    4.428586189252
 C   -0.394023606551    3.086232280423    4.593536189252
 S    0.360356393449    3.785042280423    3.061276189252
LI    0.193896393449    2.036612280423    1.647176189252
 S   -0.389303359432   -4.089087250573   -3.307183840479
 C    0.365075108675   -3.390284419524   -4.839447048636
 H    0.360929811623   -4.150662079469   -5.636855360838
 H   -0.198255371385   -2.516907745312   -5.206334739459
 H    1.410754432363   -3.083524936509   -4.674492396709
