11

 H   -0.379569358332    3.954844028067    5.478492158289
 H    0.179620641668    2.321084028067    5.047962158289
 H   -1.429389358332    2.887694028067    4.516122158289
 C   -0.383719358332    3.194464028067    4.681072158289
 S    0.370660641668    3.893274028067    3.148812158289
LI    0.204200641668    2.144844028067    1.734712158289
 S   -0.401145937272   -4.213477004107   -3.407788125735
 C    0.353232530835   -3.514674173057   -4.940051333893
 H    0.349087233782   -4.275051833002   -5.737459646095
 H   -0.210097949226   -2.641297498845   -5.306939024716
 H    1.398911854523   -3.207914690043   -4.775096681966
