11

 H   -0.376134608926    3.990921277281    5.507670814635
 H    0.183055391074    2.357161277281    5.077140814635
 H   -1.425954608926    2.923771277281    4.545300814635
 C   -0.380284608926    3.230541277281    4.710250814635
 S    0.374095391074    3.929351277281    3.177990814635
LI    0.207635391074    2.180921277281    1.763890814635
 S   -0.405093463219   -4.254940255284   -3.441322887487
 C    0.349285004889   -3.556137424234   -4.973586095645
 H    0.345139707836   -4.316515084179   -5.770994407847
 H   -0.214045475172   -2.682760750023   -5.340473786468
 H    1.394964328577   -3.249377941220   -4.808631443718
