11

 H   -0.372699859520    4.026998526496    5.536849470980
 H    0.186490140480    2.393238526496    5.106319470980
 H   -1.422519859520    2.959848526496    4.574479470980
 C   -0.376849859520    3.266618526496    4.739429470980
 S    0.377530140480    3.965428526496    3.207169470980
LI    0.211070140480    2.216998526496    1.793069470980
 S   -0.409040989166   -4.296403506462   -3.474857649240
 C    0.345337478942   -3.597600675412   -5.007120857397
 H    0.341192181889   -4.357978335357   -5.804529169599
 H   -0.217993001119   -2.724224001201   -5.374008548220
 H    1.391016802630   -3.290841192398   -4.842166205470
