11

 H   -0.365830360708    4.099153024925    5.595206783671
 H    0.193359639292    2.465393024925    5.164676783671
 H   -1.415650360708    3.032003024925    4.632836783671
 C   -0.369980360708    3.338773024925    4.797786783671
 S    0.384399639292    4.037583024925    3.265526783671
LI    0.217939639292    2.289153024925    1.851426783671
 S   -0.416936041059   -4.379330008817   -3.541927172744
 C    0.337442427048   -3.680527177768   -5.074190380901
 H    0.333297129995   -4.440904837713   -5.871598693104
 H   -0.225888053013   -2.807150503556   -5.441078071725
 H    1.383121750736   -3.373767694754   -4.909235728975
