11

 H   -0.355526112489    4.207384772569    5.682742752708
 H    0.203663887511    2.573624772569    5.252212752708
 H   -1.405346112489    3.140234772569    4.720372752708
 C   -0.359676112489    3.447004772569    4.885322752708
 S    0.394703887511    4.145814772569    3.353062752708
LI    0.228243887511    2.397384772569    1.938962752708
 S   -0.428778618899   -4.503719762351   -3.642531458001
 C    0.325599849208   -3.804916931301   -5.174794666158
 H    0.321454552155   -4.565294591246   -5.972202978360
 H   -0.237730630853   -2.931540257089   -5.541682356981
 H    1.371279172896   -3.498157448287   -5.009840014231
