11

 H   -0.345221864271    4.315616520213    5.770278721745
 H    0.213968135729    2.681856520213    5.339748721745
 H   -1.395041864271    3.248466520213    4.807908721745
 C   -0.349371864271    3.555236520213    4.972858721745
 S    0.405008135729    4.254046520213    3.440598721745
LI    0.238548135729    2.505616520213    2.026498721745
 S   -0.440621196739   -4.628109515884   -3.743135743257
 C    0.313757271368   -3.929306684834   -5.275398951415
 H    0.309611974315   -4.689684344779   -6.072807263617
 H   -0.249573208693   -3.055930010622   -5.642286642238
 H    1.359436595056   -3.622547201820   -5.110444299488
