11

 H   -0.341787114864    4.351693769428    5.799457378091
 H    0.217402885136    2.717933769428    5.368927378091
 H   -1.391607114864    3.284543769428    4.837087378091
 C   -0.345937114864    3.591313769428    5.002037378091
 S    0.408442885136    4.290123769428    3.469777378091
LI    0.241982885136    2.541693769428    2.055677378091
 S   -0.444568722686   -4.669572767062   -3.776670505010
 C    0.309809745421   -3.970769936012   -5.308933713167
 H    0.305664448368   -4.731147595957   -6.106342025369
 H   -0.253520734640   -3.097393261800   -5.675821403990
 H    1.355489069109   -3.664010452998   -5.143979061240
