11

 H   -0.338352365458    4.387771018642    5.828636034437
 H    0.220837634542    2.754011018642    5.398106034437
 H   -1.388172365458    3.320621018642    4.866266034437
 C   -0.342502365458    3.627391018642    5.031216034437
 S    0.411877634542    4.326201018642    3.498956034437
LI    0.245417634542    2.577771018642    2.084856034437
 S   -0.448516248633   -4.711036018239   -3.810205266762
 C    0.305862219474   -4.012233187189   -5.342468474919
 H    0.301716922422   -4.772610847134   -6.139876787121
 H   -0.257468260586   -3.138856512978   -5.709356165742
 H    1.351541543162   -3.705473704175   -5.177513822992
