11

 H   -0.328048117240    4.496002766286    5.916172003474
 H    0.231141882760    2.862242766286    5.485642003474
 H   -1.377868117240    3.428852766286    4.953802003474
 C   -0.332198117240    3.735622766286    5.118752003474
 S    0.422181882760    4.434432766286    3.586492003474
LI    0.255721882760    2.686002766286    2.172392003474
 S   -0.460358826473   -4.835425771772   -3.910809552018
 C    0.294019641634   -4.136622940723   -5.443072760176
 H    0.289874344581   -4.897000600668   -6.240481072378
 H   -0.269310838427   -3.263246266511   -5.809960450999
 H    1.339698965322   -3.829863457709   -5.278118108249
