27

 N    0.515212992998    4.245375585462   -0.234178902514
 C    0.226452992998    5.565075585462   -0.458048902514
 H    1.047112992998    6.190705585462   -0.809718902514
 C   -0.407067007002    3.345255585462    0.307761097486
 O   -0.007257007002    2.182945585462    0.590011097486
 N   -1.686327007002    3.777305585462    0.482321097486
 C   -2.010627007002    5.040585585462    0.183351097486
 N   -3.310957007002    5.386715585462    0.337651097486
 H   -3.967497007002    4.671185585462    0.623191097486
 H   -3.650457007002    6.304565585462    0.089371097486
 C   -1.049317007002    6.019975585462   -0.255148902514
 H   -1.318177007002    7.058515585462   -0.440938902514
 H    1.474652992998    3.920585585462   -0.296868902514
RB    0.001932992998   -0.580574414538   -0.156918902514
 O    0.005785304871   -1.739001064015   -0.470020894645
 C    0.405594097816   -2.901310352436   -0.187772516911
 N   -0.516693649289   -3.801424563765    0.354164342608
 H   -1.476133454108   -3.476636218687    0.416842978759
 C   -0.227932919907   -5.121128812397    0.578033411057
 H   -1.048606661484   -5.746754833560    0.929695663695
 C    1.047830244690   -5.576024351248    0.375140338004
 H    1.316690061814   -6.614567320336    0.560934478368
 C    2.009146686220   -4.596632142659   -0.063354919666
 N    1.684853303631   -3.333349409219   -0.362322915112
 N    3.309478978078   -4.942766257730   -0.217652457020
 H    3.966013715889   -4.227237630445   -0.503186625875
 H    3.648971462858   -5.860619273469    0.030628495084
