27

 N    0.514864641511    4.350128175397   -0.205866152109
 C    0.226104641511    5.669828175397   -0.429736152109
 H    1.046764641511    6.295458175397   -0.781406152109
 C   -0.407415358489    3.450008175397    0.336073847891
 O   -0.007605358489    2.287698175397    0.618323847891
 N   -1.686675358489    3.882058175397    0.510633847891
 C   -2.010975358489    5.145338175397    0.211663847891
 N   -3.311305358489    5.491468175397    0.365963847891
 H   -3.967845358489    4.775938175397    0.651503847891
 H   -3.650805358489    6.409318175397    0.117683847891
 C   -1.049665358489    6.124728175397   -0.226836152109
 H   -1.318525358489    7.163268175397   -0.412626152109
 H    1.474304641511    4.025338175397   -0.268556152109
RB    0.001584641511   -0.475821824603   -0.128606152109
 O    0.006400031352   -1.923855136448   -0.519983642272
 C    0.406208824297   -3.086164424870   -0.237735264538
 N   -0.516078922808   -3.986278636199    0.304201594980
 H   -1.475518727627   -3.661490291121    0.366880231132
 C   -0.227318193425   -5.305982884831    0.528070663430
 H   -1.047991935003   -5.931608905993    0.879732916067
 C    1.048444971171   -5.760878423682    0.325177590377
 H    1.317304788296   -6.799421392770    0.510971730741
 C    2.009761412701   -4.781486215093   -0.113317667293
 N    1.685468030112   -3.518203481653   -0.412285662739
 N    3.310093704560   -5.127620330164   -0.267615204648
 H    3.966628442370   -4.412091702878   -0.553149373502
 H    3.649586189339   -6.045473345902   -0.019334252543
