27

 N    0.514632407186    4.419963235354   -0.186990985172
 C    0.225872407186    5.739663235354   -0.410860985172
 H    1.046532407186    6.365293235354   -0.762530985172
 C   -0.407647592814    3.519843235354    0.354949014828
 O   -0.007837592814    2.357533235354    0.637199014828
 N   -1.686907592814    3.951893235354    0.529509014828
 C   -2.011207592814    5.215173235354    0.230539014828
 N   -3.311537592814    5.561303235354    0.384839014828
 H   -3.968077592814    4.845773235354    0.670379014828
 H   -3.651037592814    6.479153235354    0.136559014828
 C   -1.049897592814    6.194563235354   -0.207960985172
 H   -1.318757592814    7.233103235354   -0.393750985172
 H    1.474072407186    4.095173235354   -0.249680985172
RB    0.001352407186   -0.405986764646   -0.109730985172
 O    0.006809849007   -2.047091184737   -0.553292140690
 C    0.406618641951   -3.209400473159   -0.271043762956
 N   -0.515669105153   -4.109514684488    0.270893096562
 H   -1.475108909973   -3.784726339410    0.333571732713
 C   -0.226908375771   -5.429218933120    0.494762165012
 H   -1.047582117348   -6.054844954282    0.846424417649
 C    1.048854788825   -5.884114471971    0.291869091959
 H    1.317714605950   -6.922657441059    0.477663232323
 C    2.010171230355   -4.904722263382   -0.146626165711
 N    1.685877847766   -3.641439529942   -0.445594161157
 N    3.310503522214   -5.250856378453   -0.300923703066
 H    3.967038260024   -4.535327751167   -0.586457871920
 H    3.649996006993   -6.168709394191   -0.052642750961
