27

 N    0.514167938536    4.559633355268   -0.149240651298
 C    0.225407938536    5.879333355268   -0.373110651298
 H    1.046067938536    6.504963355268   -0.724780651298
 C   -0.408112061464    3.659513355268    0.392699348702
 O   -0.008302061464    2.497203355268    0.674949348702
 N   -1.687372061464    4.091563355268    0.567259348702
 C   -2.011672061464    5.354843355268    0.268289348702
 N   -3.312002061464    5.700973355268    0.422589348702
 H   -3.968542061464    4.985443355268    0.708129348702
 H   -3.651502061464    6.618823355268    0.174309348702
 C   -1.050362061464    6.334233355268   -0.170210651298
 H   -1.319222061464    7.372773355268   -0.356000651298
 H    1.473607938536    4.234843355268   -0.211930651298
RB    0.000887938536   -0.266316644732   -0.071980651298
 O    0.007629484315   -2.293563281315   -0.619909137527
 C    0.407438277260   -3.455872569737   -0.337660759792
 N   -0.514849469845   -4.355986781066    0.204276099726
 H   -1.474289274664   -4.031198435988    0.266954735877
 C   -0.226088740463   -5.675691029698    0.428145168175
 H   -1.046762482040   -6.301317050860    0.779807420813
 C    1.049674424133   -6.130586568549    0.225252095122
 H    1.318534241258   -7.169129537637    0.411046235486
 C    2.010990865664   -5.151194359960   -0.213243162547
 N    1.686697483074   -3.887911626520   -0.512211157993
 N    3.311323157522   -5.497328475031   -0.367540699902
 H    3.967857895333   -4.781799847745   -0.653074868756
 H    3.650815642302   -6.415181490769   -0.119259747797
