27

 N    0.513819587049    4.664385945204   -0.120927900892
 C    0.225059587049    5.984085945204   -0.344797900892
 H    1.045719587049    6.609715945204   -0.696467900892
 C   -0.408460412951    3.764265945204    0.421012099108
 O   -0.008650412951    2.601955945204    0.703262099108
 N   -1.687720412951    4.196315945204    0.595572099108
 C   -2.012020412951    5.459595945204    0.296602099108
 N   -3.312350412951    5.805725945204    0.450902099108
 H   -3.968890412951    5.090195945204    0.736442099108
 H   -3.651850412951    6.723575945204    0.202622099108
 C   -1.050710412951    6.438985945204   -0.141897900892
 H   -1.319570412951    7.477525945204   -0.327687900892
 H    1.473259587049    4.339595945204   -0.183617900892
RB    0.000539587049   -0.161564054796   -0.043667900892
 O    0.008244210796   -2.478417353749   -0.669871885154
 C    0.408053003741   -3.640726642170   -0.387623507420
 N   -0.514234743364   -4.540840853499    0.154313352099
 H   -1.473674548183   -4.216052508421    0.216991988250
 C   -0.225474013981   -5.860545102131    0.378182420548
 H   -1.046147755559   -6.486171123294    0.729844673186
 C    1.050289150615   -6.315440640982    0.175289347495
 H    1.319148967740   -7.353983610070    0.361083487859
 C    2.011605592145   -5.336048432393   -0.263205910175
 N    1.687312209556   -4.072765698953   -0.562173905621
 N    3.311937884003   -5.682182547464   -0.417503447529
 H    3.968472621814   -4.966653920179   -0.703037616384
 H    3.651430368783   -6.600035563203   -0.169222495424
