27

 N    0.513703469887    4.699303475182   -0.111490317424
 C    0.224943469887    6.019003475182   -0.335360317424
 H    1.045603469887    6.644633475182   -0.687030317424
 C   -0.408576530113    3.799183475182    0.430449682576
 O   -0.008766530113    2.636873475182    0.712699682576
 N   -1.687836530113    4.231233475182    0.605009682576
 C   -2.012136530113    5.494513475182    0.306039682576
 N   -3.312466530113    5.840643475182    0.460339682576
 H   -3.969006530113    5.125113475182    0.745879682576
 H   -3.651966530113    6.758493475182    0.212059682576
 C   -1.050826530113    6.473903475182   -0.132460317424
 H   -1.319686530113    7.512443475182   -0.318250317424
 H    1.473143469887    4.374513475182   -0.174180317424
RB    0.000423469887   -0.126646524818   -0.034230317424
 O    0.008449119623   -2.540035377893   -0.686526134363
 C    0.408257912568   -3.702344666315   -0.404277756629
 N   -0.514029834537   -4.602458877644    0.137659102890
 H   -1.473469639356   -4.277670532566    0.200337739041
 C   -0.225269105154   -5.922163126276    0.361528171339
 H   -1.045942846732   -6.547789147438    0.713190423977
 C    1.050494059442   -6.377058665127    0.158635098286
 H    1.319353876567   -7.415601634215    0.344429238650
 C    2.011810500972   -5.397666456538   -0.279860159384
 N    1.687517118383   -4.134383723098   -0.578828154830
 N    3.312142792831   -5.743800571609   -0.434157696738
 H    3.968677530641   -5.028271944323   -0.719691865593
 H    3.651635277610   -6.661653587347   -0.185876744634
