27

 N    0.513239001238    4.838973595096   -0.073739983550
 C    0.224479001238    6.158673595096   -0.297609983550
 H    1.045139001238    6.784303595096   -0.649279983550
 C   -0.409040998762    3.938853595096    0.468200016450
 O   -0.009230998762    2.776543595096    0.750450016450
 N   -1.688300998762    4.370903595096    0.642760016450
 C   -2.012600998762    5.634183595096    0.343790016450
 N   -3.312930998762    5.980313595096    0.498090016450
 H   -3.969470998762    5.264783595096    0.783630016450
 H   -3.652430998762    6.898163595096    0.249810016450
 C   -1.051290998762    6.613573595096   -0.094709983550
 H   -1.320150998762    7.652113595096   -0.280499983550
 H    1.472679001238    4.514183595096   -0.136429983550
RB   -0.000040998762    0.013023595096    0.003520016450
 O    0.009268754932   -2.786507474471   -0.753143131199
 C    0.409077547876   -3.948816762893   -0.470894753465
 N   -0.513210199228   -4.848930974222    0.071042106053
 H   -1.472650004048   -4.524142629144    0.133720742205
 C   -0.224449469846   -6.168635222854    0.294911174503
 H   -1.045123211423   -6.794261244016    0.646573427140
 C    1.051313694750   -6.623530761705    0.092018101450
 H    1.320173511875   -7.662073730793    0.277812241814
 C    2.012630136280   -5.644138553116   -0.346477156220
 N    1.688336753691   -4.380855819676   -0.645445151666
 N    3.312962428139   -5.990272668187   -0.500774693575
 H    3.969497165949   -5.274744040901   -0.786308862429
 H    3.652454912919   -6.908125683925   -0.252493741470
