27

 N    0.512658415426    5.013561244989   -0.026552066207
 C    0.223898415426    6.333261244989   -0.250422066207
 H    1.044558415426    6.958891244989   -0.602092066207
 C   -0.409621584574    4.113441244989    0.515387933793
 O   -0.009811584574    2.951131244989    0.797637933793
 N   -1.688881584574    4.545491244989    0.689947933793
 C   -2.013181584574    5.808771244989    0.390977933793
 N   -3.313511584574    6.154901244989    0.545277933793
 H   -3.970051584574    5.439371244989    0.830817933793
 H   -3.653011584574    7.072751244989    0.296997933793
 C   -1.051871584574    6.788161244989   -0.047522066207
 H   -1.320731584574    7.826701244989   -0.233312066207
 H    1.472098415426    4.688771244989   -0.089242066207
RB   -0.000621584574    0.187611244989    0.050707933793
 O    0.010293299067   -3.094597595194   -0.836414377245
 C    0.410102092012   -4.256906883615   -0.554165999510
 N   -0.512185655093   -5.157021094944   -0.012229139992
 H   -1.471625459912   -4.832232749867    0.050449496159
 C   -0.223424925710   -6.476725343576    0.211639928458
 H   -1.044098667288   -7.102351364739    0.563302181095
 C    1.052338238886   -6.931620882427    0.008746855404
 H    1.321198056011   -7.970163851515    0.194540995768
 C    2.013654680416   -5.952228673838   -0.429748402265
 N    1.689361297827   -4.688945940398   -0.728716397711
 N    3.313986972275   -6.298362788909   -0.584045939620
 H    3.970521710085   -5.582834161624   -0.869580108474
 H    3.653479457054   -7.216215804648   -0.335764987515
