27

 N    0.512542298263    5.048478774968   -0.017114482739
 C    0.223782298263    6.368178774968   -0.240984482739
 H    1.044442298263    6.993808774968   -0.592654482739
 C   -0.409737701737    4.148358774968    0.524825517261
 O   -0.009927701737    2.986048774968    0.807075517261
 N   -1.688997701737    4.580408774968    0.699385517261
 C   -2.013297701737    5.843688774968    0.400415517261
 N   -3.313627701737    6.189818774968    0.554715517261
 H   -3.970167701737    5.474288774968    0.840255517261
 H   -3.653127701737    7.107668774968    0.306435517261
 C   -1.051987701737    6.823078774968   -0.038084482739
 H   -1.320847701737    7.861618774968   -0.223874482739
 H    1.471982298263    4.723688774968   -0.079804482739
RB   -0.000737701737    0.222528774968    0.060145517261
 O    0.010498207895   -3.156215619338   -0.853068626454
 C    0.410307000839   -4.318524907760   -0.570820248719
 N   -0.511980746265   -5.218639119089   -0.028883389201
 H   -1.471420551085   -4.893850774011    0.033795246950
 C   -0.223220016883   -6.538343367721    0.194985679248
 H   -1.043893758460   -7.163969388883    0.546647931886
 C    1.052543147713   -6.993238906572   -0.007907393805
 H    1.321402964838   -8.031781875660    0.177886746559
 C    2.013859589243   -6.013846697983   -0.446402651474
 N    1.689566206654   -4.750563964543   -0.745370646921
 N    3.314191881102   -6.359980813054   -0.600700188829
 H    3.970726618912   -5.644452185768   -0.886234357683
 H    3.653684365881   -7.277833828792   -0.352419236724
