27

 N    0.512426181101    5.083396304946   -0.007676899270
 C    0.223666181101    6.403096304946   -0.231546899270
 H    1.044326181101    7.028726304946   -0.583216899270
 C   -0.409853818899    4.183276304946    0.534263100730
 O   -0.010043818899    3.020966304946    0.816513100730
 N   -1.689113818899    4.615326304946    0.708823100730
 C   -2.013413818899    5.878606304946    0.409853100730
 N   -3.313743818899    6.224736304946    0.564153100730
 H   -3.970283818899    5.509206304946    0.849693100730
 H   -3.653243818899    7.142586304946    0.315873100730
 C   -1.052103818899    6.857996304946   -0.028646899270
 H   -1.320963818899    7.896536304946   -0.214436899270
 H    1.471866181101    4.758606304946   -0.070366899270
RB   -0.000853818899    0.257446304946    0.069583100730
 O    0.010703116722   -3.217833643483   -0.869722875663
 C    0.410511909666   -4.380142931904   -0.587474497928
 N   -0.511775837438   -5.280257143233   -0.045537638410
 H   -1.471215642258   -4.955468798156    0.017140997741
 C   -0.223015108056   -6.599961391865    0.178331430039
 H   -1.043688849633   -7.225587413028    0.529993682677
 C    1.052748056540   -7.054856930716   -0.024561643014
 H    1.321607873665   -8.093399899804    0.161232497350
 C    2.014064498070   -6.075464722127   -0.463056900683
 N    1.689771115481   -4.812181988687   -0.762024896130
 N    3.314396789929   -6.421598837198   -0.617354438038
 H    3.970931527739   -5.706070209913   -0.902888606892
 H    3.653889274708   -7.339451852937   -0.369073485933
