27

 N    0.512193946776    5.153231364903    0.011198267667
 C    0.223433946776    6.472931364903   -0.212671732333
 H    1.044093946776    7.098561364903   -0.564341732333
 C   -0.410086053224    4.253111364903    0.553138267667
 O   -0.010276053224    3.090801364903    0.835388267667
 N   -1.689346053224    4.685161364903    0.727698267667
 C   -2.013646053224    5.948441364903    0.428728267667
 N   -3.313976053224    6.294571364903    0.583028267667
 H   -3.970516053224    5.579041364903    0.868568267667
 H   -3.653476053224    7.212421364903    0.334748267667
 C   -1.052336053224    6.927831364903   -0.009771732333
 H   -1.321196053224    7.966371364903   -0.195561732333
 H    1.471633946776    4.828441364903   -0.051491732333
RB   -0.001086053224    0.327281364903    0.088458267667
 O    0.011112934376   -3.341069691772   -0.903031374081
 C    0.410921727320   -4.503378980193   -0.620782996347
 N   -0.511366019784   -5.403493191522   -0.078846136828
 H   -1.470805824604   -5.078704846445   -0.016167500677
 C   -0.222605290402   -6.723197440154    0.145022931621
 H   -1.043279031979   -7.348823461317    0.496685184259
 C    1.053157874194   -7.178092979005   -0.057870141432
 H    1.322017691319   -8.216635948093    0.127923998932
 C    2.014474315724   -6.198700770416   -0.496365399102
 N    1.690180933135   -4.935418036976   -0.795333394548
 N    3.314806607583   -6.544834885487   -0.650662936456
 H    3.971341345393   -5.829306258202   -0.936197105311
 H    3.654299092363   -7.462687901226   -0.402381984351
