27

 N    0.511729478127    5.292901484817    0.048948601541
 C    0.222969478127    6.612601484817   -0.174921398459
 H    1.043629478127    7.238231484817   -0.526591398459
 C   -0.410550521873    4.392781484817    0.590888601541
 O   -0.010740521873    3.230471484817    0.873138601541
 N   -1.689810521873    4.824831484817    0.765448601541
 C   -2.014110521873    6.088111484817    0.466478601541
 N   -3.314440521873    6.434241484817    0.620778601541
 H   -3.970980521873    5.718711484817    0.906318601541
 H   -3.653940521873    7.352091484817    0.372498601541
 C   -1.052800521873    7.067501484817    0.027978601541
 H   -1.321660521873    8.106041484817   -0.157811398459
 H    1.471169478127    4.968111484817   -0.013741398459
RB   -0.001550521873    0.466951484817    0.126208601541
 O    0.011932569684   -3.587541788350   -0.969648370917
 C    0.411741362629   -4.749851076771   -0.687399993183
 N   -0.510546384476   -5.649965288100   -0.145463133665
 H   -1.469986189295   -5.325176943023   -0.082784497513
 C   -0.221785655094   -6.969669536733    0.078405934785
 H   -1.042459396671   -7.595295557895    0.430068187422
 C    1.053977509503   -7.424565075583   -0.124487138268
 H    1.322837326628   -8.463108044671    0.061307002096
 C    2.015293951033   -6.445172866994   -0.562982395938
 N    1.691000568444   -5.181890133554   -0.861950391384
 N    3.315626242891   -6.791306982065   -0.717279933293
 H    3.972160980702   -6.075778354780   -1.002814102147
 H    3.655118727671   -7.709159997804   -0.468998981188
