27

 N    0.511497243802    5.362736544774    0.067823768478
 C    0.222737243802    6.682436544774   -0.156046231522
 H    1.043397243802    7.308066544774   -0.507716231522
 C   -0.410782756198    4.462616544774    0.609763768478
 O   -0.010972756198    3.300306544774    0.892013768478
 N   -1.690042756198    4.894666544774    0.784323768478
 C   -2.014342756198    6.157946544774    0.485353768478
 N   -3.314672756198    6.504076544774    0.639653768478
 H   -3.971212756198    5.788546544774    0.925193768478
 H   -3.654172756198    7.421926544774    0.391373768478
 C   -1.053032756198    7.137336544774    0.046853768478
 H   -1.321892756198    8.175876544774   -0.138936231522
 H    1.470937243802    5.037946544774    0.005133768478
RB   -0.001782756198    0.536786544774    0.145083768478
 O    0.012342387339   -3.710777836639   -1.002956869335
 C    0.412151180283   -4.873087125060   -0.720708491601
 N   -0.510136566821   -5.773201336389   -0.178771632083
 H   -1.469576371641   -5.448412991312   -0.116092995932
 C   -0.221375837439   -7.092905585022    0.045097436367
 H   -1.042049579017   -7.718531606184    0.396759689004
 C    1.054387327157   -7.547801123872   -0.157795636686
 H    1.323247144282   -8.586344092960    0.027998503678
 C    2.015703768687   -6.568408915283   -0.596290894356
 N    1.691410386098   -5.305126181843   -0.895258889802
 N    3.316036060546   -6.914543030354   -0.750588431711
 H    3.972570798356   -6.199014403069   -1.036122600565
 H    3.655528545325   -7.832396046093   -0.502307479606
