27

 N    0.511381126640    5.397654074753    0.077261351946
 C    0.222621126640    6.717354074753   -0.146608648054
 H    1.043281126640    7.342984074753   -0.498278648054
 C   -0.410898873360    4.497534074753    0.619201351946
 O   -0.011088873360    3.335224074753    0.901451351946
 N   -1.690158873360    4.929584074753    0.793761351946
 C   -2.014458873360    6.192864074753    0.494791351946
 N   -3.314788873360    6.538994074753    0.649091351946
 H   -3.971328873360    5.823464074753    0.934631351946
 H   -3.654288873360    7.456844074753    0.400811351946
 C   -1.053148873360    7.172254074753    0.056291351946
 H   -1.322008873360    8.210794074753   -0.129498648054
 H    1.470821126640    5.072864074753    0.014571351946
RB   -0.001898873360    0.571704074753    0.154521351946
 O    0.012547296166   -3.772395860783   -1.019611118544
 C    0.412356089110   -4.934705149205   -0.737362740810
 N   -0.509931657994   -5.834819360534   -0.195425881292
 H   -1.469371462814   -5.510031015456   -0.132747245141
 C   -0.221170928612   -7.154523609166    0.028443187158
 H   -1.041844670189   -7.780149630329    0.380105439795
 C    1.054592235984   -7.609419148017   -0.174449885895
 H    1.323452053109   -8.647962117105    0.011344254469
 C    2.015908677514   -6.630026939428   -0.612945143565
 N    1.691615294925   -5.366744205988   -0.911913139011
 N    3.316240969373   -6.976161054499   -0.767242680920
 H    3.972775707183   -6.260632427214   -1.052776849774
 H    3.655733454152   -7.894014070237   -0.518961728815
