27

 N    0.511032775153    5.502406664688    0.105574102352
 C    0.222272775153    6.822106664688   -0.118295897648
 H    1.042932775153    7.447736664688   -0.469965897648
 C   -0.411247224847    4.602286664688    0.647514102352
 O   -0.011437224847    3.439976664688    0.929764102352
 N   -1.690507224847    5.034336664688    0.822074102352
 C   -2.014807224847    6.297616664688    0.523104102352
 N   -3.315137224847    6.643746664688    0.677404102352
 H   -3.971677224847    5.928216664688    0.962944102352
 H   -3.654637224847    7.561596664688    0.429124102352
 C   -1.053497224847    7.277006664688    0.084604102352
 H   -1.322357224847    8.315546664688   -0.101185897648
 H    1.470472775153    5.177616664688    0.042884102352
RB   -0.002247224847    0.676456664688    0.182834102352
 O    0.013162022647   -3.957249933217   -1.069573866172
 C    0.412970815591   -5.119559221638   -0.787325488437
 N   -0.509316931513   -6.019673432967   -0.245388628919
 H   -1.468756736333   -5.694885087890   -0.182709992768
 C   -0.220556202131   -7.339377681600   -0.021519560470
 H   -1.041229943708   -7.965003702762    0.330142692168
 C    1.055206962465   -7.794273220450   -0.224412633523
 H    1.324066779590   -8.832816189538   -0.038618493159
 C    2.016523403995   -6.814881011861   -0.662907891192
 N    1.692230021406   -5.551598278421   -0.961875886638
 N    3.316855695854   -7.161015126932   -0.817205428547
 H    3.973390433665   -6.445486499647   -1.102739597401
 H    3.656348180634   -8.078868142671   -0.568924476442
