27

 N    0.510916657991    5.537324194667    0.115011685820
 C    0.222156657991    6.857024194667   -0.108858314180
 H    1.042816657991    7.482654194667   -0.460528314180
 C   -0.411363342009    4.637204194667    0.656951685820
 O   -0.011553342009    3.474894194667    0.939201685820
 N   -1.690623342009    5.069254194667    0.831511685820
 C   -2.014923342009    6.332534194667    0.532541685820
 N   -3.315253342009    6.678664194667    0.686841685820
 H   -3.971793342009    5.963134194667    0.972381685820
 H   -3.654753342009    7.596514194667    0.438561685820
 C   -1.053613342009    7.311924194667    0.094041685820
 H   -1.322473342009    8.350464194667   -0.091748314180
 H    1.470356657991    5.212534194667    0.052321685820
RB   -0.002363342009    0.711374194667    0.192271685820
 O    0.013366931474   -4.018867957361   -1.086228115381
 C    0.413175724419   -5.181177245783   -0.803979737646
 N   -0.509112022686   -6.081291457112   -0.262042878128
 H   -1.468551827505   -5.756503112034   -0.199364241977
 C   -0.220351293304   -7.400995705744   -0.038173809679
 H   -1.041025034881   -8.026621726907    0.313488442959
 C    1.055411871293   -7.855891244595   -0.241066882732
 H    1.324271688417   -8.894434213683   -0.055272742368
 C    2.016728312823   -6.876499036006   -0.679562140401
 N    1.692434930233   -5.613216302566   -0.978530135848
 N    3.317060604681   -7.222633151077   -0.833859677756
 H    3.973595342492   -6.507104523792   -1.119393846610
 H    3.656553089461   -8.140486166815   -0.585578725651
