27

 N    0.509407134880    5.991252084388    0.237700270911
 C    0.220647134880    7.310952084388    0.013830270911
 H    1.041307134880    7.936582084388   -0.337839729089
 C   -0.412872865120    5.091132084388    0.779640270911
 O   -0.013062865120    3.928822084388    1.061890270911
 N   -1.692132865120    5.523182084388    0.954200270911
 C   -2.016432865120    6.786462084388    0.655230270911
 N   -3.316762865120    7.132592084388    0.809530270911
 H   -3.973302865120    6.417062084388    1.095070270911
 H   -3.656262865120    8.050442084388    0.561250270911
 C   -1.055122865120    7.765852084388    0.216730270911
 H   -1.323982865120    8.804392084388    0.030940270911
 H    1.468847134880    5.666462084388    0.175010270911
RB   -0.003872865120    1.165302084388    0.314960270911
 O    0.016030746226   -4.819902271240   -1.302733355099
 C    0.415839539171   -5.982211559661   -1.020484977364
 N   -0.506448207934   -6.882325770990   -0.478548117846
 H   -1.465888012753   -6.557537425913   -0.415869481695
 C   -0.217687478551   -8.202030019623   -0.254679049397
 H   -1.038361220129   -8.827656040785    0.096983203241
 C    1.058075686045   -8.656925558474   -0.457572122450
 H    1.326935503170   -9.695468527562   -0.271777982086
 C    2.019392127575   -7.677533349884   -0.896067380119
 N    1.695098744986   -6.414250616444   -1.195035375565
 N    3.319724419434   -8.023667464955   -1.050364917474
 H    3.976259157244   -7.308138837670   -1.335899086328
 H    3.659216904213   -8.941520480694   -0.802083965369
