27

 N    0.509291017718    6.026169614366    0.247137854379
 C    0.220531017718    7.345869614366    0.023267854379
 H    1.041191017718    7.971499614366   -0.328402145621
 C   -0.412988982282    5.126049614366    0.789077854379
 O   -0.013178982282    3.963739614366    1.071327854379
 N   -1.692248982282    5.558099614366    0.963637854379
 C   -2.016548982282    6.821379614366    0.664667854379
 N   -3.316878982282    7.167509614366    0.818967854379
 H   -3.973418982282    6.451979614366    1.104507854379
 H   -3.656378982282    8.085359614366    0.570687854379
 C   -1.055238982282    7.800769614366    0.226167854379
 H   -1.324098982282    8.839309614366    0.040377854379
 H    1.468731017718    5.701379614366    0.184447854379
RB   -0.003988982282    1.200219614366    0.324397854379
 O    0.016235655054   -4.881520295385   -1.319387604308
 C    0.416044447998   -6.043829583806   -1.037139226573
 N   -0.506243299106   -6.943943795135   -0.495202367055
 H   -1.465683103926   -6.619155450057   -0.432523730904
 C   -0.217482569724   -8.263648043767   -0.271333298606
 H   -1.038156311301   -8.889274064930    0.080328954032
 C    1.058280594872   -8.718543582618   -0.474226371659
 H    1.327140411997   -9.757086551706   -0.288432231295
 C    2.019597036402   -7.739151374029   -0.912721629328
 N    1.695303653813   -6.475868640589   -1.211689624775
 N    3.319929328261   -8.085285489100   -1.067019166683
 H    3.976464066071   -7.369756861815   -1.352553335537
 H    3.659421813040   -9.003138504838   -0.818738214578
