27

 N    0.508594314744    6.235674794237    0.303763355190
 C    0.219834314744    7.555374794237    0.079893355190
 H    1.040494314744    8.181004794237   -0.271776644810
 C   -0.413685685256    5.335554794237    0.845703355190
 O   -0.013875685256    4.173244794237    1.127953355190
 N   -1.692945685256    5.767604794237    1.020263355190
 C   -2.017245685256    7.030884794237    0.721293355190
 N   -3.317575685256    7.377014794237    0.875593355190
 H   -3.974115685256    6.661484794237    1.161133355190
 H   -3.657075685256    8.294864794237    0.627313355190
 C   -1.055935685256    8.010274794237    0.282793355190
 H   -1.324795685256    9.048814794237    0.097003355190
 H    1.468034314744    5.910884794237    0.241073355190
RB   -0.004685685256    1.409724794237    0.381023355190
 O    0.017465108016   -5.251228440252   -1.419313099562
 C    0.417273900961   -6.413537728673   -1.137064721828
 N   -0.505013846144   -7.313651940002   -0.595127862310
 H   -1.464453650963   -6.988863594924   -0.532449226158
 C   -0.216253116762   -8.633356188634   -0.371258793860
 H   -1.036926858339   -9.258982209797   -0.019596541223
 C    1.059510047835   -9.088251727485   -0.574151866913
 H    1.328369864959  -10.126794696573   -0.388357726549
 C    2.020826489365   -8.108859518896   -1.012647124583
 N    1.696533106776   -6.845576785456   -1.311615120029
 N    3.321158781223   -8.454993633967   -1.166944661938
 H    3.977693519034   -7.739465006682   -1.452478830792
 H    3.660651266003   -9.372846649705   -0.918663709833
