27

 N    0.508245963256    6.340427384173    0.332076105596
 C    0.219485963256    7.660127384173    0.108206105596
 H    1.040145963256    8.285757384173   -0.243463894404
 C   -0.414034036744    5.440307384173    0.874016105596
 O   -0.014224036744    4.277997384173    1.156266105596
 N   -1.693294036744    5.872357384173    1.048576105596
 C   -2.017594036744    7.135637384173    0.749606105596
 N   -3.317924036744    7.481767384173    0.903906105596
 H   -3.974464036744    6.766237384173    1.189446105596
 H   -3.657424036744    8.399617384173    0.655626105596
 C   -1.056284036744    8.115027384173    0.311106105596
 H   -1.325144036744    9.153567384173    0.125316105596
 H    1.467685963256    6.015637384173    0.269386105596
RB   -0.005034036744    1.514477384173    0.409336105596
 O    0.018079834498   -5.436082512685   -1.469275847189
 C    0.417888627442   -6.598391801106   -1.187027469455
 N   -0.504399119662   -7.498506012435   -0.645090609937
 H   -1.463838924482   -7.173717667358   -0.582411973786
 C   -0.215638390280   -8.818210261068   -0.421221541487
 H   -1.036312131858   -9.443836282230   -0.069559288850
 C    1.060124774316   -9.273105799919   -0.624114614540
 H    1.328984591441  -10.311648769007   -0.438320474176
 C    2.021441215846   -8.293713591329   -1.062609872210
 N    1.697147833257   -7.030430857889   -1.361577867656
 N    3.321773507705   -8.639847706401   -1.216907409565
 H    3.978308245515   -7.924319079115   -1.502441578419
 H    3.661265992484   -9.557700722139   -0.968626457460
