27

 N    0.507781494607    6.480097504087    0.369826439470
 C    0.219021494607    7.799797504087    0.145956439470
 H    1.039681494607    8.425427504087   -0.205713560530
 C   -0.414498505393    5.579977504087    0.911766439470
 O   -0.014688505393    4.417667504087    1.194016439470
 N   -1.693758505393    6.012027504087    1.086326439470
 C   -2.018058505393    7.275307504087    0.787356439470
 N   -3.318388505393    7.621437504087    0.941656439470
 H   -3.974928505393    6.905907504087    1.227196439470
 H   -3.657888505393    8.539287504087    0.693376439470
 C   -1.056748505393    8.254697504087    0.348856439470
 H   -1.325608505393    9.293237504087    0.163066439470
 H    1.467221494607    6.155307504087    0.307136439470
RB   -0.005498505393    1.654147504087    0.447086439470
 O    0.018899469806   -5.682554609263   -1.535892844026
 C    0.418708262750   -6.844863897684   -1.253644466291
 N   -0.503579484354   -7.744978109013   -0.711707606773
 H   -1.463019289174   -7.420189763936   -0.649028970622
 C   -0.214818754972   -9.064682357646   -0.487838538324
 H   -1.035492496549   -9.690308378808   -0.136176285686
 C    1.060944409624   -9.519577896497   -0.690731611377
 H    1.329804226749  -10.558120865585   -0.504937471013
 C    2.022260851154   -8.540185687907   -1.129226869046
 N    1.697967468565   -7.276902954467   -1.428194864492
 N    3.322593143013   -8.886319802979   -1.283524406401
 H    3.979127880824   -8.170791175693   -1.569058575255
 H    3.662085627793   -9.804172818717   -1.035243454296
