27

 N    0.507549260282    6.549932564044    0.388701606407
 C    0.218789260282    7.869632564044    0.164831606407
 H    1.039449260282    8.495262564044   -0.186838393593
 C   -0.414730739718    5.649812564044    0.930641606407
 O   -0.014920739718    4.487502564044    1.212891606407
 N   -1.693990739718    6.081862564044    1.105201606407
 C   -2.018290739718    7.345142564044    0.806231606407
 N   -3.318620739718    7.691272564044    0.960531606407
 H   -3.975160739718    6.975742564044    1.246071606407
 H   -3.658120739718    8.609122564044    0.712251606407
 C   -1.056980739718    8.324532564044    0.367731606407
 H   -1.325840739718    9.363072564044    0.181941606407
 H    1.466989260282    6.225142564044    0.326011606407
RB   -0.005730739718    1.723982564044    0.465961606407
 O    0.019309287460   -5.805790657552   -1.569201342444
 C    0.419118080405   -6.968099945974   -1.286952964710
 N   -0.503169666700   -7.868214157302   -0.745016105191
 H   -1.462609471519   -7.543425812225   -0.682337469040
 C   -0.214408937318   -9.187918405935   -0.521147036742
 H   -1.035082678895   -9.813544427097   -0.169484784104
 C    1.061354227279   -9.642813944786   -0.724040109795
 H    1.330214044403  -10.681356913874   -0.538245969431
 C    2.022670668809   -8.663421736197   -1.162535367465
 N    1.698377286220   -7.400139002756   -1.461503362911
 N    3.323002960667   -9.009555851268   -1.316832904819
 H    3.979537698478   -8.294027223982   -1.602367073674
 H    3.662495445447   -9.927408867006   -1.068551952714
