27

 N    0.507084791633    6.689602683958    0.426451940281
 C    0.218324791633    8.009302683958    0.202581940281
 H    1.038984791633    8.634932683958   -0.149088059719
 C   -0.415195208367    5.789482683958    0.968391940281
 O   -0.015385208367    4.627172683958    1.250641940281
 N   -1.694455208367    6.221532683958    1.142951940281
 C   -2.018755208367    7.484812683958    0.843981940281
 N   -3.319085208367    7.830942683958    0.998281940281
 H   -3.975625208367    7.115412683958    1.283821940281
 H   -3.658585208367    8.748792683958    0.750001940281
 C   -1.057445208367    8.464202683958    0.405481940281
 H   -1.326305208367    9.502742683958    0.219691940281
 H    1.466524791633    6.364812683958    0.363761940281
RB   -0.006195208367    1.863652683958    0.503711940281
 O    0.020128922769   -6.052262754130   -1.635818339280
 C    0.419937715713   -7.214572042552   -1.353569961546
 N   -0.502350031391   -8.114686253880   -0.811633102028
 H   -1.461789836211   -7.789897908803   -0.748954465876
 C   -0.213589302009   -9.434390502513   -0.587764033578
 H   -1.034263043586  -10.060016523675   -0.236101780941
 C    1.062173862587   -9.889286041364   -0.790657106631
 H    1.331033679712  -10.927829010452   -0.604862966267
 C    2.023490304117   -8.909893832775   -1.229152364301
 N    1.699196921528   -7.646611099334   -1.528120359747
 N    3.323822595976   -9.256027947846   -1.383449901655
 H    3.980357333786   -8.540499320560   -1.668984070510
 H    3.663315080755  -10.173880963584   -1.135168949551
