27

 N    0.506968674471    6.724520213937    0.435889523749
 C    0.218208674471    8.044220213937    0.212019523749
 H    1.038868674471    8.669850213937   -0.139650476251
 C   -0.415311325529    5.824400213937    0.977829523749
 O   -0.015501325529    4.662090213937    1.260079523749
 N   -1.694571325529    6.256450213937    1.152389523749
 C   -2.018871325529    7.519730213937    0.853419523749
 N   -3.319201325529    7.865860213937    1.007719523749
 H   -3.975741325529    7.150330213937    1.293259523749
 H   -3.658701325529    8.783710213937    0.759439523749
 C   -1.057561325529    8.499120213937    0.414919523749
 H   -1.326421325529    9.537660213937    0.229129523749
 H    1.466408674471    6.399730213937    0.373199523749
RB   -0.006311325529    1.898570213937    0.513149523749
 O    0.020333831596   -6.113880778275   -1.652472588489
 C    0.420142624540   -7.276190066696   -1.370224210755
 N   -0.502145122564   -8.176304278025   -0.828287351237
 H   -1.461584927384   -7.851515932947   -0.765608715085
 C   -0.213384393182   -9.496008526657   -0.604418282787
 H   -1.034058134759  -10.121634547820   -0.252756030150
 C    1.062378771414   -9.950904065508   -0.807311355840
 H    1.331238588539  -10.989447034596   -0.621517215476
 C    2.023695212944   -8.971511856919   -1.245806613510
 N    1.699401830355   -7.708229123479   -1.544774608956
 N    3.324027504803   -9.317645971990   -1.400104150865
 H    3.980562242613   -8.602117344705   -1.685638319719
 H    3.663519989583  -10.235498987729   -1.151823198760
