27

 N    0.506504205821    6.864190333851    0.473639857623
 C    0.217744205821    8.183890333851    0.249769857623
 H    1.038404205821    8.809520333851   -0.101900142377
 C   -0.415775794179    5.964070333851    1.015579857623
 O   -0.015965794179    4.801760333851    1.297829857623
 N   -1.695035794179    6.396120333851    1.190139857623
 C   -2.019335794179    7.659400333851    0.891169857623
 N   -3.319665794179    8.005530333851    1.045469857623
 H   -3.976205794179    7.290000333851    1.331009857623
 H   -3.659165794179    8.923380333851    0.797189857623
 C   -1.058025794179    8.638790333851    0.452669857623
 H   -1.326885794179    9.677330333851    0.266879857623
 H    1.465944205821    6.539400333851    0.410949857623
RB   -0.006775794179    2.038240333851    0.550899857623
 O    0.021153466904   -6.360352874853   -1.719089585325
 C    0.420962259849   -7.522662163274   -1.436841207591
 N   -0.501325487256   -8.422776374603   -0.894904348073
 H   -1.460765292075   -8.097988029525   -0.832225711922
 C   -0.212564757874   -9.742480623235   -0.671035279623
 H   -1.033238499451  -10.368106644398   -0.319373026986
 C    1.063198406723  -10.197376162086   -0.873928352676
 H    1.332058223847  -11.235919131174   -0.688134212313
 C    2.024514848253   -9.217983953497   -1.312423610346
 N    1.700221465664   -7.954701220057   -1.611391605792
 N    3.324847140111   -9.564118068568   -1.466721147701
 H    3.981381877922   -8.848589441283   -1.752255316555
 H    3.664339624891  -10.481971084307   -1.218440195596
