27

 N    0.506271971496    6.934025393808    0.492515024560
 C    0.217511971496    8.253725393808    0.268645024560
 H    1.038171971496    8.879355393808   -0.083024975440
 C   -0.416008028504    6.033905393808    1.034455024560
 O   -0.016198028504    4.871595393808    1.316705024560
 N   -1.695268028504    6.465955393808    1.209015024560
 C   -2.019568028504    7.729235393808    0.910045024560
 N   -3.319898028504    8.075365393808    1.064345024560
 H   -3.976438028504    7.359835393808    1.349885024560
 H   -3.659398028504    8.993215393808    0.816065024560
 C   -1.058258028504    8.708625393808    0.471545024560
 H   -1.327118028504    9.747165393808    0.285755024560
 H    1.465711971496    6.609235393808    0.429825024560
RB   -0.007008028504    2.108075393808    0.569775024560
 O    0.021563284558   -6.483588923142   -1.752398083744
 C    0.421372077503   -7.645898211563   -1.470149706009
 N   -0.500915669602   -8.546012422892   -0.928212846491
 H   -1.460355474421   -8.221224077814   -0.865534210340
 C   -0.212154940219   -9.865716671524   -0.704343778041
 H   -1.032828681797  -10.491342692687   -0.352681525404
 C    1.063608224377  -10.320612210375   -0.907236851095
 H    1.332468041502  -11.359155179463   -0.721442710731
 C    2.024924665907   -9.341220001786   -1.345732108764
 N    1.700631283318   -8.077937268346   -1.644700104210
 N    3.325256957765   -9.687354116857   -1.500029646119
 H    3.981791695576   -8.971825489572   -1.785563814973
 H    3.664749442545  -10.605207132596   -1.251748694014
