27

 N    0.506155854334    6.968942923786    0.501952608029
 C    0.217395854334    8.288642923786    0.278082608029
 H    1.038055854334    8.914272923786   -0.073587391971
 C   -0.416124145666    6.068822923786    1.043892608029
 O   -0.016314145666    4.906512923786    1.326142608029
 N   -1.695384145666    6.500872923786    1.218452608029
 C   -2.019684145666    7.764152923786    0.919482608029
 N   -3.320014145666    8.110282923786    1.073782608029
 H   -3.976554145666    7.394752923786    1.359322608029
 H   -3.659514145666    9.028132923786    0.825502608029
 C   -1.058374145666    8.743542923786    0.480982608029
 H   -1.327234145666    9.782082923786    0.295192608029
 H    1.465595854334    6.644152923786    0.439262608029
RB   -0.007124145666    2.142992923786    0.579212608029
 O    0.021768193385   -6.545206947286   -1.769052332953
 C    0.421576986330   -7.707516235708   -1.486803955218
 N   -0.500710760775   -8.607630447037   -0.944867095700
 H   -1.460150565594   -8.282842101959   -0.882188459549
 C   -0.211950031392   -9.927334695669   -0.720998027251
 H   -1.032623772970  -10.552960716831   -0.369335774613
 C    1.063813133204  -10.382230234520   -0.923891100304
 H    1.332672950329  -11.420773203608   -0.738096959940
 C    2.025129574734   -9.402838025931   -1.362386357973
 N    1.700836192145   -8.139555292490   -1.661354353419
 N    3.325461866593   -9.748972141002   -1.516683895328
 H    3.981996604403   -9.033443513716   -1.802218064182
 H    3.664954351372  -10.666825156740   -1.268402943223
