27

 N    0.505575268522    7.143530573679    0.549140525371
 C    0.216815268522    8.463230573679    0.325270525371
 H    1.037475268522    9.088860573679   -0.026399474629
 C   -0.416704731478    6.243410573679    1.091080525371
 O   -0.016894731478    5.081100573679    1.373330525371
 N   -1.695964731478    6.675460573679    1.265640525371
 C   -2.020264731478    7.938740573679    0.966670525371
 N   -3.320594731478    8.284870573679    1.120970525371
 H   -3.977134731478    7.569340573679    1.406510525371
 H   -3.660094731478    9.202720573679    0.872690525371
 C   -1.058954731478    8.918130573679    0.528170525371
 H   -1.327814731478    9.956670573679    0.342380525371
 H    1.465015268522    6.818740573679    0.486450525371
RB   -0.007704731478    2.317580573679    0.626400525371
 O    0.022792737521   -6.853297068009   -1.852323578998
 C    0.422601530466   -8.015606356430   -1.570075201264
 N   -0.499686216639   -8.915720567759   -1.028138341745
 H   -1.459126021458   -8.590932222681   -0.965459705594
 C   -0.210925487257  -10.235424816391   -0.804269273296
 H   -1.031599228834  -10.861050837554   -0.452607020658
 C    1.064837677339  -10.690320355242   -1.007162346349
 H    1.333697494464  -11.728863324330   -0.821368205985
 C    2.026154118870   -9.710928146653   -1.445657604019
 N    1.701860736280   -8.447645413213   -1.744625599465
 N    3.326486410728  -10.057062261724   -1.599955141373
 H    3.983021148539   -9.341533634439   -1.885489310228
 H    3.665978895508  -10.974915277463   -1.351674189269
