27

 N    0.505226917035    7.248283163614    0.577453275776
 C    0.216466917035    8.567983163614    0.353583275776
 H    1.037126917035    9.193613163614    0.001913275776
 C   -0.417053082965    6.348163163614    1.119393275776
 O   -0.017243082965    5.185853163614    1.401643275776
 N   -1.696313082965    6.780213163614    1.293953275776
 C   -2.020613082965    8.043493163614    0.994983275776
 N   -3.320943082965    8.389623163614    1.149283275776
 H   -3.977483082965    7.674093163614    1.434823275776
 H   -3.660443082965    9.307473163614    0.901003275776
 C   -1.059303082965    9.022883163614    0.556483275776
 H   -1.328163082965   10.061423163614    0.370693275776
 H    1.464666917035    6.923493163614    0.514763275776
RB   -0.008053082965    2.422333163614    0.654713275776
 O    0.023407464002   -7.038151140442   -1.902286326625
 C    0.423216256947   -8.200460428864   -1.620037948891
 N   -0.499071490158   -9.100574640193   -1.078101089373
 H   -1.458511294977   -8.775786295115   -1.015422453221
 C   -0.210310760775  -10.420278888825   -0.854232020923
 H   -1.030984502353  -11.045904909987   -0.502569768286
 C    1.065452403821  -10.875174427676   -1.057125093976
 H    1.334312220946  -11.913717396764   -0.871330953612
 C    2.026768845351   -9.895782219087   -1.495620351646
 N    1.702475462762   -8.632499485647   -1.794588347092
 N    3.327101137209  -10.241916334158   -1.649917889001
 H    3.983635875020   -9.526387706872   -1.935452057855
 H    3.666593621989  -11.159769349896   -1.401636936896
