27

 N    0.505110799873    7.283200693593    0.586890859245
 C    0.216350799873    8.602900693593    0.363020859245
 H    1.037010799873    9.228530693593    0.011350859245
 C   -0.417169200127    6.383080693593    1.128830859245
 O   -0.017359200127    5.220770693593    1.411080859245
 N   -1.696429200127    6.815130693593    1.303390859245
 C   -2.020729200127    8.078410693593    1.004420859245
 N   -3.321059200127    8.424540693593    1.158720859245
 H   -3.977599200127    7.709010693593    1.444260859245
 H   -3.660559200127    9.342390693593    0.910440859245
 C   -1.059419200127    9.057800693593    0.565920859245
 H   -1.328279200127   10.096340693593    0.380130859245
 H    1.464550799873    6.958410693593    0.524200859245
RB   -0.008169200127    2.457250693593    0.664150859245
 O    0.023612372829   -7.099769164587   -1.918940575834
 C    0.423421165774   -8.262078453008   -1.636692198100
 N   -0.498866581331   -9.162192664337   -1.094755338582
 H   -1.458306386150   -8.837404319259   -1.032076702430
 C   -0.210105851948  -10.481896912969   -0.870886270132
 H   -1.030779593526  -11.107522934132   -0.519224017495
 C    1.065657312648  -10.936792451820   -1.073779343185
 H    1.334517129773  -11.975335420908   -0.887985202821
 C    2.026973754178   -9.957400243231   -1.512274600855
 N    1.702680371589   -8.694117509791   -1.811242596301
 N    3.327306046037  -10.303534358302   -1.666572138210
 H    3.983840783847   -9.588005731017   -1.952106307064
 H    3.666798530816  -11.221387374041   -1.418291186105
