12

 C   -0.273473697883    2.004929783406    0.000000000000
 C    0.838868302117    0.985451783406    0.000000000000
 O    0.334537302117   -0.281001216594    0.000000000000
 C    1.349003302117   -1.314740216594    0.000000000000
 O    2.036508302117    1.229944783406    0.000000000000
 H    0.159096302117    3.011939783406    0.000000000000
 H   -0.905810697883    1.862357783406    0.888615000000
 H   -0.905810697883    1.862357783406   -0.888615000000
 H    0.794906302117   -2.259864216594    0.000000000000
 H    1.978798302117   -1.228441216594    0.896190000000
 H    1.978798302117   -1.228441216594   -0.896190000000
RB   -0.753978714990   -0.439534747753    0.000000000000
