12

 C   -0.167747282839    2.020327978426    0.000000000000
 C    0.944594717161    1.000849978426    0.000000000000
 O    0.440263717161   -0.265603021574    0.000000000000
 C    1.454729717161   -1.299342021574    0.000000000000
 O    2.142234717161    1.245342978426    0.000000000000
 H    0.264822717161    3.027337978426    0.000000000000
 H   -0.800084282839    1.877755978426    0.888615000000
 H   -0.800084282839    1.877755978426   -0.888615000000
 H    0.900632717161   -2.244466021574    0.000000000000
 H    2.084524717161   -1.213043021574    0.896190000000
 H    2.084524717161   -1.213043021574   -0.896190000000
RB   -0.846164303056   -0.452960831126    0.000000000000
