12

 C    0.043705547248    2.051124368466    0.000000000000
 C    1.156047547248    1.031646368466    0.000000000000
 O    0.651716547248   -0.234806631534    0.000000000000
 C    1.666182547248   -1.268545631534    0.000000000000
 O    2.353687547248    1.276139368466    0.000000000000
 H    0.476275547248    3.058134368466    0.000000000000
 H   -0.588631452752    1.908552368466    0.888615000000
 H   -0.588631452752    1.908552368466   -0.888615000000
 H    1.112085547248   -2.213669631534    0.000000000000
 H    2.295977547248   -1.182246631534    0.896190000000
 H    2.295977547248   -1.182246631534   -0.896190000000
RB   -1.030535479190   -0.479812997871    0.000000000000
