12

 C    0.096568754770    2.058823465976    0.000000000000
 C    1.208910754770    1.039345465976    0.000000000000
 O    0.704579754770   -0.227107534024    0.000000000000
 C    1.719045754770   -1.260846534024    0.000000000000
 O    2.406550754770    1.283838465976    0.000000000000
 H    0.529138754770    3.065833465976    0.000000000000
 H   -0.535768245230    1.916251465976    0.888615000000
 H   -0.535768245230    1.916251465976   -0.888615000000
 H    1.164948754770   -2.205970534024    0.000000000000
 H    2.348840754770   -1.174547534024    0.896190000000
 H    2.348840754770   -1.174547534024   -0.896190000000
RB   -1.076628273223   -0.486526039557    0.000000000000
