12

 C    0.149431962292    2.066522563486    0.000000000000
 C    1.261773962292    1.047044563486    0.000000000000
 O    0.757442962292   -0.219408436514    0.000000000000
 C    1.771908962292   -1.253147436514    0.000000000000
 O    2.459413962292    1.291537563486    0.000000000000
 H    0.582001962292    3.073532563486    0.000000000000
 H   -0.482905037708    1.923950563486    0.888615000000
 H   -0.482905037708    1.923950563486   -0.888615000000
 H    1.217811962292   -2.198271436514    0.000000000000
 H    2.401703962292   -1.166848436514    0.896190000000
 H    2.401703962292   -1.166848436514   -0.896190000000
RB   -1.122721067256   -0.493239081244    0.000000000000
