12

 C    0.413747999901    2.105018051036    0.000000000000
 C    1.526089999901    1.085540051036    0.000000000000
 O    1.021758999901   -0.180912948964    0.000000000000
 C    2.036224999901   -1.214651948964    0.000000000000
 O    2.723729999901    1.330033051036    0.000000000000
 H    0.846317999901    3.112028051036    0.000000000000
 H   -0.218589000099    1.962446051036    0.888615000000
 H   -0.218589000099    1.962446051036   -0.888615000000
 H    1.482127999901   -2.159775948964    0.000000000000
 H    2.666019999901   -1.128352948964    0.896190000000
 H    2.666019999901   -1.128352948964   -0.896190000000
RB   -1.353185037423   -0.526804289676    0.000000000000
