12

 C    0.625200829989    2.135814441075    0.000000000000
 C    1.737542829989    1.116336441075    0.000000000000
 O    1.233211829989   -0.150116558925    0.000000000000
 C    2.247677829989   -1.183855558925    0.000000000000
 O    2.935182829989    1.360829441075    0.000000000000
 H    1.057770829989    3.142824441075    0.000000000000
 H   -0.007136170011    1.993242441075    0.888615000000
 H   -0.007136170011    1.993242441075   -0.888615000000
 H    1.693580829989   -2.128979558925    0.000000000000
 H    2.877472829989   -1.097556558925    0.896190000000
 H    2.877472829989   -1.097556558925   -0.896190000000
RB   -1.537556213556   -0.553656456421    0.000000000000
