12

 C    0.889516867598    2.174309928625    0.000000000000
 C    2.001858867598    1.154831928625    0.000000000000
 O    1.497527867598   -0.111621071375    0.000000000000
 C    2.511993867598   -1.145360071375    0.000000000000
 O    3.199498867598    1.399324928625    0.000000000000
 H    1.322086867598    3.181319928625    0.000000000000
 H    0.257179867598    2.031737928625    0.888615000000
 H    0.257179867598    2.031737928625   -0.888615000000
 H    1.957896867598   -2.090484071375    0.000000000000
 H    3.141788867598   -1.059061071375    0.896190000000
 H    3.141788867598   -1.059061071375   -0.896190000000
RB   -1.768020183723   -0.587221664853    0.000000000000
