12

 C    0.995243282641    2.189708123645    0.000000000000
 C    2.107585282641    1.170230123645    0.000000000000
 O    1.603254282641   -0.096222876355    0.000000000000
 C    2.617720282641   -1.129961876355    0.000000000000
 O    3.305225282641    1.414723123645    0.000000000000
 H    1.427813282641    3.196718123645    0.000000000000
 H    0.362906282641    2.047136123645    0.888615000000
 H    0.362906282641    2.047136123645   -0.888615000000
 H    2.063623282641   -2.075085876355    0.000000000000
 H    3.247515282641   -1.043662876355    0.896190000000
 H    3.247515282641   -1.043662876355   -0.896190000000
RB   -1.860205771790   -0.600647748225    0.000000000000
