12

 C    1.048106490163    2.197407221155    0.000000000000
 C    2.160448490163    1.177929221155    0.000000000000
 O    1.656117490163   -0.088523778845    0.000000000000
 C    2.670583490163   -1.122262778845    0.000000000000
 O    3.358088490163    1.422422221155    0.000000000000
 H    1.480676490163    3.204417221155    0.000000000000
 H    0.415769490163    2.054835221155    0.888615000000
 H    0.415769490163    2.054835221155   -0.888615000000
 H    2.116486490163   -2.067386778845    0.000000000000
 H    3.300378490163   -1.035963778845    0.896190000000
 H    3.300378490163   -1.035963778845   -0.896190000000
RB   -1.906298565823   -0.607360789912    0.000000000000
