12

 C    1.100969697685    2.205106318665    0.000000000000
 C    2.213311697685    1.185628318665    0.000000000000
 O    1.708980697685   -0.080824681335    0.000000000000
 C    2.723446697685   -1.114563681335    0.000000000000
 O    3.410951697685    1.430121318665    0.000000000000
 H    1.533539697685    3.212116318665    0.000000000000
 H    0.468632697685    2.062534318665    0.888615000000
 H    0.468632697685    2.062534318665   -0.888615000000
 H    2.169349697685   -2.059687681335    0.000000000000
 H    3.353241697685   -1.028264681335    0.896190000000
 H    3.353241697685   -1.028264681335   -0.896190000000
RB   -1.952391359856   -0.614073831598    0.000000000000
