12

 C    1.206696112729    2.220504513685    0.000000000000
 C    2.319038112729    1.201026513685    0.000000000000
 O    1.814707112729   -0.065426486315    0.000000000000
 C    2.829173112729   -1.099165486315    0.000000000000
 O    3.516678112729    1.445519513685    0.000000000000
 H    1.639266112729    3.227514513685    0.000000000000
 H    0.574359112729    2.077932513685    0.888615000000
 H    0.574359112729    2.077932513685   -0.888615000000
 H    2.275076112729   -2.044289486315    0.000000000000
 H    3.458968112729   -1.012866486315    0.896190000000
 H    3.458968112729   -1.012866486315   -0.896190000000
RB   -2.044576947923   -0.627499914971    0.000000000000
