12

 C    1.259559320251    2.228203611195    0.000000000000
 C    2.371901320251    1.208725611195    0.000000000000
 O    1.867570320251   -0.057727388805    0.000000000000
 C    2.882036320251   -1.091466388805    0.000000000000
 O    3.569541320251    1.453218611195    0.000000000000
 H    1.692129320251    3.235213611195    0.000000000000
 H    0.627222320251    2.085631611195    0.888615000000
 H    0.627222320251    2.085631611195   -0.888615000000
 H    2.327939320251   -2.036590388805    0.000000000000
 H    3.511831320251   -1.005167388805    0.896190000000
 H    3.511831320251   -1.005167388805   -0.896190000000
RB   -2.090669741956   -0.634212956657    0.000000000000
