12

 C    1.312422527772    2.235902708705    0.000000000000
 C    2.424764527772    1.216424708705    0.000000000000
 O    1.920433527772   -0.050028291295    0.000000000000
 C    2.934899527772   -1.083767291295    0.000000000000
 O    3.622404527772    1.460917708705    0.000000000000
 H    1.744992527772    3.242912708705    0.000000000000
 H    0.680085527772    2.093330708705    0.888615000000
 H    0.680085527772    2.093330708705   -0.888615000000
 H    2.380802527772   -2.028891291295    0.000000000000
 H    3.564694527772   -0.997468291295    0.896190000000
 H    3.564694527772   -0.997468291295   -0.896190000000
RB   -2.136762535989   -0.640925998344    0.000000000000
