12

 C    1.471012150338    2.259000001234    0.000000000000
 C    2.583354150338    1.239522001234    0.000000000000
 O    2.079023150338   -0.026930998766    0.000000000000
 C    3.093489150338   -1.060669998766    0.000000000000
 O    3.780994150338    1.484015001234    0.000000000000
 H    1.903582150338    3.266010001234    0.000000000000
 H    0.838675150338    2.116428001234    0.888615000000
 H    0.838675150338    2.116428001234   -0.888615000000
 H    2.539392150338   -2.005793998766    0.000000000000
 H    3.723284150338   -0.974370998766    0.896190000000
 H    3.723284150338   -0.974370998766   -0.896190000000
RB   -2.275040918089   -0.661065123403    0.000000000000
