12

 C    1.788191395469    2.305194586294    0.000000000000
 C    2.900533395469    1.285716586294    0.000000000000
 O    2.396202395469    0.019263586294    0.000000000000
 C    3.410668395469   -1.014475413706    0.000000000000
 O    4.098173395469    1.530209586294    0.000000000000
 H    2.220761395469    3.312204586294    0.000000000000
 H    1.155854395469    2.162622586294    0.888615000000
 H    1.155854395469    2.162622586294   -0.888615000000
 H    2.856571395469   -1.959599413706    0.000000000000
 H    4.040463395469   -0.928176413706    0.896190000000
 H    4.040463395469   -0.928176413706   -0.896190000000
RB   -2.551597682289   -0.701343373521    0.000000000000
