12

 C    2.052507433078    2.343690073844    0.000000000000
 C    3.164849433078    1.324212073844    0.000000000000
 O    2.660518433078    0.057759073844    0.000000000000
 C    3.674984433078   -0.975979926156    0.000000000000
 O    4.362489433078    1.568705073844    0.000000000000
 H    2.485077433078    3.350700073844    0.000000000000
 H    1.420170433078    2.201118073844    0.888615000000
 H    1.420170433078    2.201118073844   -0.888615000000
 H    3.120887433078   -1.921103926156    0.000000000000
 H    4.304779433078   -0.889680926156    0.896190000000
 H    4.304779433078   -0.889680926156   -0.896190000000
RB   -2.782061652456   -0.734908581952    0.000000000000
