12

 C    2.158233848122    2.359088268864    0.000000000000
 C    3.270575848122    1.339610268864    0.000000000000
 O    2.766244848122    0.073157268864    0.000000000000
 C    3.780710848122   -0.960581731136    0.000000000000
 O    4.468215848122    1.584103268864    0.000000000000
 H    2.590803848122    3.366098268864    0.000000000000
 H    1.525896848122    2.216516268864    0.888615000000
 H    1.525896848122    2.216516268864   -0.888615000000
 H    3.226613848122   -1.905705731136    0.000000000000
 H    4.410505848122   -0.874282731136    0.896190000000
 H    4.410505848122   -0.874282731136   -0.896190000000
RB   -2.874247240523   -0.748334665325    0.000000000000
