12

 C    2.369686678209    2.389884658903    0.000000000000
 C    3.482028678209    1.370406658903    0.000000000000
 O    2.977697678209    0.103953658903    0.000000000000
 C    3.992163678209   -0.929785341097    0.000000000000
 O    4.679668678209    1.614899658903    0.000000000000
 H    2.802256678209    3.396894658903    0.000000000000
 H    1.737349678209    2.247312658903    0.888615000000
 H    1.737349678209    2.247312658903   -0.888615000000
 H    3.438066678209   -1.874909341097    0.000000000000
 H    4.621958678209   -0.843486341097    0.896190000000
 H    4.621958678209   -0.843486341097   -0.896190000000
RB   -3.058618416656   -0.775186832071    0.000000000000
