12

 C    2.422549885731    2.397583756413    0.000000000000
 C    3.534891885731    1.378105756413    0.000000000000
 O    3.030560885731    0.111652756413    0.000000000000
 C    4.045026885731   -0.922086243587    0.000000000000
 O    4.732531885731    1.622598756413    0.000000000000
 H    2.855119885731    3.404593756413    0.000000000000
 H    1.790212885731    2.255011756413    0.888615000000
 H    1.790212885731    2.255011756413   -0.888615000000
 H    3.490929885731   -1.867210243587    0.000000000000
 H    4.674821885731   -0.835787243587    0.896190000000
 H    4.674821885731   -0.835787243587   -0.896190000000
RB   -3.104711210689   -0.781899873757    0.000000000000
