12

 C    2.475413093253    2.405282853923    0.000000000000
 C    3.587755093253    1.385804853923    0.000000000000
 O    3.083424093253    0.119351853923    0.000000000000
 C    4.097890093253   -0.914387146077    0.000000000000
 O    4.785395093253    1.630297853923    0.000000000000
 H    2.907983093253    3.412292853923    0.000000000000
 H    1.843076093253    2.262710853923    0.888615000000
 H    1.843076093253    2.262710853923   -0.888615000000
 H    3.543793093253   -1.859511146077    0.000000000000
 H    4.727685093253   -0.828088146077    0.896190000000
 H    4.727685093253   -0.828088146077   -0.896190000000
RB   -3.150804004723   -0.788612915443    0.000000000000
