12

 C    2.528276300775    2.412981951433    0.000000000000
 C    3.640618300775    1.393503951433    0.000000000000
 O    3.136287300775    0.127050951433    0.000000000000
 C    4.150753300775   -0.906688048567    0.000000000000
 O    4.838258300775    1.637996951433    0.000000000000
 H    2.960846300775    3.419991951433    0.000000000000
 H    1.895939300775    2.270409951433    0.888615000000
 H    1.895939300775    2.270409951433   -0.888615000000
 H    3.596656300775   -1.851812048567    0.000000000000
 H    4.780548300775   -0.820389048567    0.896190000000
 H    4.780548300775   -0.820389048567   -0.896190000000
RB   -3.196896798756   -0.795325957130    0.000000000000
