12

 C    2.686865923340    2.436079243963    0.000000000000
 C    3.799207923340    1.416601243963    0.000000000000
 O    3.294876923340    0.150148243963    0.000000000000
 C    4.309342923340   -0.883590756037    0.000000000000
 O    4.996847923340    1.661094243963    0.000000000000
 H    3.119435923340    3.443089243963    0.000000000000
 H    2.054528923340    2.293507243963    0.888615000000
 H    2.054528923340    2.293507243963   -0.888615000000
 H    3.755245923340   -1.828714756037    0.000000000000
 H    4.939137923340   -0.797291756037    0.896190000000
 H    4.939137923340   -0.797291756037   -0.896190000000
RB   -3.335175180856   -0.815465082189    0.000000000000
