12

 C    2.792592338384    2.451477438983    0.000000000000
 C    3.904934338384    1.431999438983    0.000000000000
 O    3.400603338384    0.165546438983    0.000000000000
 C    4.415069338384   -0.868192561017    0.000000000000
 O    5.102574338384    1.676492438983    0.000000000000
 H    3.225162338384    3.458487438983    0.000000000000
 H    2.160255338384    2.308905438983    0.888615000000
 H    2.160255338384    2.308905438983   -0.888615000000
 H    3.860972338384   -1.813316561017    0.000000000000
 H    5.044864338384   -0.781893561017    0.896190000000
 H    5.044864338384   -0.781893561017   -0.896190000000
RB   -3.427360768923   -0.828891165561    0.000000000000
