12

 C    3.056908375993    2.489972926533    0.000000000000
 C    4.169250375993    1.470494926533    0.000000000000
 O    3.664919375993    0.204041926533    0.000000000000
 C    4.679385375993   -0.829697073467    0.000000000000
 O    5.366890375993    1.714987926533    0.000000000000
 H    3.489478375993    3.496982926533    0.000000000000
 H    2.424571375993    2.347400926533    0.888615000000
 H    2.424571375993    2.347400926533   -0.888615000000
 H    4.125288375993   -1.774821073467    0.000000000000
 H    5.309180375993   -0.743398073467    0.896190000000
 H    5.309180375993   -0.743398073467   -0.896190000000
RB   -3.657824739089   -0.862456373993    0.000000000000
