12

 C    3.215497998559    2.513070219063    0.000000000000
 C    4.327839998559    1.493592219063    0.000000000000
 O    3.823508998559    0.227139219063    0.000000000000
 C    4.837974998559   -0.806599780937    0.000000000000
 O    5.525479998559    1.738085219063    0.000000000000
 H    3.648067998559    3.520080219063    0.000000000000
 H    2.583160998559    2.370498219063    0.888615000000
 H    2.583160998559    2.370498219063   -0.888615000000
 H    4.283877998559   -1.751723780937    0.000000000000
 H    5.467769998559   -0.720300780937    0.896190000000
 H    5.467769998559   -0.720300780937   -0.896190000000
RB   -3.796103121189   -0.882595499052    0.000000000000
