12

 C    3.268361206081    2.520769316573    0.000000000000
 C    4.380703206081    1.501291316573    0.000000000000
 O    3.876372206081    0.234838316573    0.000000000000
 C    4.890838206081   -0.798900683427    0.000000000000
 O    5.578343206081    1.745784316573    0.000000000000
 H    3.700931206081    3.527779316573    0.000000000000
 H    2.636024206081    2.378197316573    0.888615000000
 H    2.636024206081    2.378197316573   -0.888615000000
 H    4.336741206081   -1.744024683427    0.000000000000
 H    5.520633206081   -0.712601683427    0.896190000000
 H    5.520633206081   -0.712601683427   -0.896190000000
RB   -3.842195915223   -0.889308540739    0.000000000000
