12

 C    3.321224413602    2.528468414082    0.000000000000
 C    4.433566413602    1.508990414082    0.000000000000
 O    3.929235413602    0.242537414082    0.000000000000
 C    4.943701413602   -0.791201585918    0.000000000000
 O    5.631206413602    1.753483414082    0.000000000000
 H    3.753794413602    3.535478414082    0.000000000000
 H    2.688887413602    2.385896414082    0.888615000000
 H    2.688887413602    2.385896414082   -0.888615000000
 H    4.389604413602   -1.736325585918    0.000000000000
 H    5.573496413602   -0.704902585918    0.896190000000
 H    5.573496413602   -0.704902585918   -0.896190000000
RB   -3.888288709256   -0.896021582425    0.000000000000
