12

 C    3.426950828646    2.543866609102    0.000000000000
 C    4.539292828646    1.524388609102    0.000000000000
 O    4.034961828646    0.257935609102    0.000000000000
 C    5.049427828646   -0.775803390898    0.000000000000
 O    5.736932828646    1.768881609102    0.000000000000
 H    3.859520828646    3.550876609102    0.000000000000
 H    2.794613828646    2.401294609102    0.888615000000
 H    2.794613828646    2.401294609102   -0.888615000000
 H    4.495330828646   -1.720927390898    0.000000000000
 H    5.679222828646   -0.689504390898    0.896190000000
 H    5.679222828646   -0.689504390898   -0.896190000000
RB   -3.980474297323   -0.909447665798    0.000000000000
