12

 C    3.479814036168    2.551565706612    0.000000000000
 C    4.592156036168    1.532087706612    0.000000000000
 O    4.087825036168    0.265634706612    0.000000000000
 C    5.102291036168   -0.768104293388    0.000000000000
 O    5.789796036168    1.776580706612    0.000000000000
 H    3.912384036168    3.558575706612    0.000000000000
 H    2.847477036168    2.408993706612    0.888615000000
 H    2.847477036168    2.408993706612   -0.888615000000
 H    4.548194036168   -1.713228293388    0.000000000000
 H    5.732086036168   -0.681805293388    0.896190000000
 H    5.732086036168   -0.681805293388   -0.896190000000
RB   -4.026567091356   -0.916160707484    0.000000000000
