12

 C    3.638403658734    2.574662999142    0.000000000000
 C    4.750745658734    1.555184999142    0.000000000000
 O    4.246414658734    0.288731999142    0.000000000000
 C    5.260880658734   -0.745007000858    0.000000000000
 O    5.948385658734    1.799677999142    0.000000000000
 H    4.070973658734    3.581672999142    0.000000000000
 H    3.006066658734    2.432090999142    0.888615000000
 H    3.006066658734    2.432090999142   -0.888615000000
 H    4.706783658734   -1.690131000858    0.000000000000
 H    5.890675658734   -0.658708000858    0.896190000000
 H    5.890675658734   -0.658708000858   -0.896190000000
RB   -4.164845473456   -0.936299832543    0.000000000000
