12

 C    3.744130073777    2.590061194162    0.000000000000
 C    4.856472073777    1.570583194162    0.000000000000
 O    4.352141073777    0.304130194162    0.000000000000
 C    5.366607073777   -0.729608805838    0.000000000000
 O    6.054112073777    1.815076194162    0.000000000000
 H    4.176700073777    3.597071194162    0.000000000000
 H    3.111793073777    2.447489194162    0.888615000000
 H    3.111793073777    2.447489194162   -0.888615000000
 H    4.812510073777   -1.674732805838    0.000000000000
 H    5.996402073777   -0.643309805838    0.896190000000
 H    5.996402073777   -0.643309805838   -0.896190000000
RB   -4.257031061522   -0.949725915916    0.000000000000
