12

 C    3.796993281299    2.597760291672    0.000000000000
 C    4.909335281299    1.578282291672    0.000000000000
 O    4.405004281299    0.311829291672    0.000000000000
 C    5.419470281299   -0.721909708328    0.000000000000
 O    6.106975281299    1.822775291672    0.000000000000
 H    4.229563281299    3.604770291672    0.000000000000
 H    3.164656281299    2.455188291672    0.888615000000
 H    3.164656281299    2.455188291672   -0.888615000000
 H    4.865373281299   -1.667033708328    0.000000000000
 H    6.049265281299   -0.635610708328    0.896190000000
 H    6.049265281299   -0.635610708328   -0.896190000000
RB   -4.303123855556   -0.956438957602    0.000000000000
