12

 C    3.849856488821    2.605459389182    0.000000000000
 C    4.962198488821    1.585981389182    0.000000000000
 O    4.457867488821    0.319528389182    0.000000000000
 C    5.472333488821   -0.714210610818    0.000000000000
 O    6.159838488821    1.830474389182    0.000000000000
 H    4.282426488821    3.612469389182    0.000000000000
 H    3.217519488821    2.462887389182    0.888615000000
 H    3.217519488821    2.462887389182   -0.888615000000
 H    4.918236488821   -1.659334610818    0.000000000000
 H    6.102128488821   -0.627911610818    0.896190000000
 H    6.102128488821   -0.627911610818   -0.896190000000
RB   -4.349216649589   -0.963151999288    0.000000000000
