12

 C    4.167035733952    2.651653974242    0.000000000000
 C    5.279377733952    1.632175974242    0.000000000000
 O    4.775046733952    0.365722974242    0.000000000000
 C    5.789512733952   -0.668016025758    0.000000000000
 O    6.477017733952    1.876668974242    0.000000000000
 H    4.599605733952    3.658663974242    0.000000000000
 H    3.534698733952    2.509081974242    0.888615000000
 H    3.534698733952    2.509081974242   -0.888615000000
 H    5.235415733952   -1.613140025758    0.000000000000
 H    6.419307733952   -0.581717025758    0.896190000000
 H    6.419307733952   -0.581717025758   -0.896190000000
RB   -4.625773413789   -1.003430249406    0.000000000000
