19

 C    0.881619006299   -3.578329676926    0.000000000000
 C   -0.365090993701   -2.730469676926    0.000000000000
 N   -1.541540993701   -3.378399676926    0.000000000000
 H   -2.405670993701   -2.849909676926    0.000000000000
 H   -1.586060993701   -4.388679676926    0.000000000000
 O   -0.325070993701   -1.477759676926    0.000000000000
 H    1.764649006299   -2.931899676926    0.000000000000
 H    0.899019006299   -4.222869676926    0.890800000000
 H    0.899019006299   -4.222869676926   -0.890800000000
LI    0.060119006299    0.273300323074    0.000000000000
 O    0.317925566617    1.445279750136    0.000000000000
 C    0.357949732883    2.697990526259    0.000000000000
 N    1.534394962843    3.345920804765    0.000000000000
 H    2.398526737150    2.817429119369    0.000000000000
 H    1.578918304078    4.356202998156    0.000000000000
 C   -0.888763581981    3.545849713001    0.000000000000
 H   -1.771800531753    2.899421406893    0.000000000000
 H   -0.906164092462    4.190398275616   -0.890802156242
 H   -0.906164092462    4.190398275616    0.890802156242
