19

 C    0.861340104271   -3.670516842186    0.000000000000
 C   -0.385369895729   -2.822656842186    0.000000000000
 N   -1.561819895729   -3.470586842186    0.000000000000
 H   -2.425949895729   -2.942096842186    0.000000000000
 H   -1.606339895729   -4.480866842186    0.000000000000
 O   -0.345349895729   -1.569946842186    0.000000000000
 H    1.744370104271   -3.024086842186    0.000000000000
 H    0.878740104271   -4.315056842186    0.890800000000
 H    0.878740104271   -4.315056842186   -0.890800000000
LI    0.039840104271    0.181113157814    0.000000000000
 O    0.340614424641    1.548422489387    0.000000000000
 C    0.380638590907    2.801133265510    0.000000000000
 N    1.557083820867    3.449063544015    0.000000000000
 H    2.421215595174    2.920571858619    0.000000000000
 H    1.601607162102    4.459345737406    0.000000000000
 C   -0.866074723957    3.648992452251    0.000000000000
 H   -1.749111673728    3.002564146143    0.000000000000
 H   -0.883475234438    4.293541014866   -0.890802156242
 H   -0.883475234438    4.293541014866    0.890802156242
