19

 C    0.851200653256   -3.716610424816    0.000000000000
 C   -0.395509346744   -2.868750424816    0.000000000000
 N   -1.571959346744   -3.516680424816    0.000000000000
 H   -2.436089346744   -2.988190424816    0.000000000000
 H   -1.616479346744   -4.526960424816    0.000000000000
 O   -0.355489346744   -1.616040424816    0.000000000000
 H    1.734230653256   -3.070180424816    0.000000000000
 H    0.868600653256   -4.361150424816    0.890800000000
 H    0.868600653256   -4.361150424816   -0.890800000000
LI    0.029700653256    0.135019575184    0.000000000000
 O    0.351958853654    1.599993859012    0.000000000000
 C    0.391983019919    2.852704635135    0.000000000000
 N    1.568428249879    3.500634913641    0.000000000000
 H    2.432560024186    2.972143228245    0.000000000000
 H    1.612951591114    4.510917107032    0.000000000000
 C   -0.854730294944    3.700563821877    0.000000000000
 H   -1.737767244716    3.054135515769    0.000000000000
 H   -0.872130805426    4.345112384491   -0.890802156242
 H   -0.872130805426    4.345112384491    0.890802156242
