19

 C    0.841061202242   -3.762704007446    0.000000000000
 C   -0.405648797758   -2.914844007446    0.000000000000
 N   -1.582098797758   -3.562774007446    0.000000000000
 H   -2.446228797758   -3.034284007446    0.000000000000
 H   -1.626618797758   -4.573054007446    0.000000000000
 O   -0.365628797758   -1.662134007446    0.000000000000
 H    1.724091202242   -3.116274007446    0.000000000000
 H    0.858461202242   -4.407244007446    0.890800000000
 H    0.858461202242   -4.407244007446   -0.890800000000
LI    0.019561202242    0.088925992554    0.000000000000
 O    0.363303282666    1.651565228637    0.000000000000
 C    0.403327448931    2.904276004760    0.000000000000
 N    1.579772678891    3.552206283266    0.000000000000
 H    2.443904453198    3.023714597870    0.000000000000
 H    1.624296020126    4.562488476657    0.000000000000
 C   -0.843385865932    3.752135191502    0.000000000000
 H   -1.726422815704    3.105706885394    0.000000000000
 H   -0.860786376414    4.396683754117   -0.890802156242
 H   -0.860786376414    4.396683754117    0.890802156242
