19

 C    0.820782300213   -3.854891172706    0.000000000000
 C   -0.425927699787   -3.007031172706    0.000000000000
 N   -1.602377699787   -3.654961172706    0.000000000000
 H   -2.466507699787   -3.126471172706    0.000000000000
 H   -1.646897699787   -4.665241172706    0.000000000000
 O   -0.385907699787   -1.754321172706    0.000000000000
 H    1.703812300213   -3.208461172706    0.000000000000
 H    0.838182300213   -4.499431172706    0.890800000000
 H    0.838182300213   -4.499431172706   -0.890800000000
LI   -0.000717699787   -0.003261172706    0.000000000000
 O    0.385992140690    1.754707967888    0.000000000000
 C    0.426016306955    3.007418744011    0.000000000000
 N    1.602461536915    3.655349022516    0.000000000000
 H    2.466593311223    3.126857337121    0.000000000000
 H    1.646984878151    4.665631215908    0.000000000000
 C   -0.820697007908    3.855277930752    0.000000000000
 H   -1.703733957680    3.208849624644    0.000000000000
 H   -0.838097518390    4.499826493367   -0.890802156242
 H   -0.838097518390    4.499826493367    0.890802156242
