19

 C    0.770085045141   -4.085359085855    0.000000000000
 C   -0.476624954859   -3.237499085855    0.000000000000
 N   -1.653074954859   -3.885429085855    0.000000000000
 H   -2.517204954859   -3.356939085855    0.000000000000
 H   -1.697594954859   -4.895709085855    0.000000000000
 O   -0.436604954859   -1.984789085855    0.000000000000
 H    1.653115045141   -3.438929085855    0.000000000000
 H    0.787485045141   -4.729899085855    0.890800000000
 H    0.787485045141   -4.729899085855   -0.890800000000
LI   -0.051414954859   -0.233729085855    0.000000000000
 O    0.442714285750    2.012564816014    0.000000000000
 C    0.482738452016    3.265275592137    0.000000000000
 N    1.659183681976    3.913205870643    0.000000000000
 H    2.523315456283    3.384714185247    0.000000000000
 H    1.703707023211    4.923488064034    0.000000000000
 C   -0.763974862848    4.113134778879    0.000000000000
 H   -1.647011812619    3.466706472771    0.000000000000
 H   -0.781375373329    4.757683341494   -0.890802156242
 H   -0.781375373329    4.757683341494    0.890802156242
