19

 C    0.749806143113   -4.177546251115    0.000000000000
 C   -0.496903856887   -3.329686251115    0.000000000000
 N   -1.673353856887   -3.977616251115    0.000000000000
 H   -2.537483856887   -3.449126251115    0.000000000000
 H   -1.717873856887   -4.987896251115    0.000000000000
 O   -0.456883856887   -2.076976251115    0.000000000000
 H    1.632836143113   -3.531116251115    0.000000000000
 H    0.767206143113   -4.822086251115    0.890800000000
 H    0.767206143113   -4.822086251115   -0.890800000000
LI   -0.071693856887   -0.325916251115    0.000000000000
 O    0.465403143775    2.115707555265    0.000000000000
 C    0.505427310040    3.368418331388    0.000000000000
 N    1.681872540000    4.016348609893    0.000000000000
 H    2.546004314307    3.487856924498    0.000000000000
 H    1.726395881235    5.026630803285    0.000000000000
 C   -0.741286004823    4.216277518129    0.000000000000
 H   -1.624322954595    3.569849212021    0.000000000000
 H   -0.758686515305    4.860826080744   -0.890802156242
 H   -0.758686515305    4.860826080744    0.890802156242
