19

 C    0.729527241084   -4.269733416375    0.000000000000
 C   -0.517182758916   -3.421873416375    0.000000000000
 N   -1.693632758916   -4.069803416375    0.000000000000
 H   -2.557762758916   -3.541313416375    0.000000000000
 H   -1.738152758916   -5.080083416375    0.000000000000
 O   -0.477162758916   -2.169163416375    0.000000000000
 H    1.612557241084   -3.623303416375    0.000000000000
 H    0.746927241084   -4.914273416375    0.890800000000
 H    0.746927241084   -4.914273416375   -0.890800000000
LI   -0.091972758916   -0.418103416375    0.000000000000
 O    0.488092001799    2.218850294515    0.000000000000
 C    0.528116168064    3.471561070638    0.000000000000
 N    1.704561398024    4.119491349144    0.000000000000
 H    2.568693172332    3.590999663748    0.000000000000
 H    1.749084739260    5.129773542535    0.000000000000
 C   -0.718597146799    4.319420257380    0.000000000000
 H   -1.601634096571    3.672991951272    0.000000000000
 H   -0.735997657280    4.963968819995   -0.890802156242
 H   -0.735997657280    4.963968819995    0.890802156242
