19

 C    0.719387790070   -4.315826999005    0.000000000000
 C   -0.527322209930   -3.467966999005    0.000000000000
 N   -1.703772209930   -4.115896999005    0.000000000000
 H   -2.567902209930   -3.587406999005    0.000000000000
 H   -1.748292209930   -5.126176999005    0.000000000000
 O   -0.487302209930   -2.215256999005    0.000000000000
 H    1.602417790070   -3.669396999005    0.000000000000
 H    0.736787790070   -4.960366999005    0.890800000000
 H    0.736787790070   -4.960366999005   -0.890800000000
LI   -0.102112209930   -0.464196999005    0.000000000000
 O    0.499436430811    2.270421664140    0.000000000000
 C    0.539460597076    3.523132440264    0.000000000000
 N    1.715905827036    4.171062718769    0.000000000000
 H    2.580037601344    3.642571033373    0.000000000000
 H    1.760429168272    5.181344912160    0.000000000000
 C   -0.707252717787    4.370991627005    0.000000000000
 H   -1.590289667559    3.724563320897    0.000000000000
 H   -0.724653228268    5.015540189620   -0.890802156242
 H   -0.724653228268    5.015540189620    0.890802156242
