19

 C    0.617993279926   -4.776762825304    0.000000000000
 C   -0.628716720074   -3.928902825304    0.000000000000
 N   -1.805166720074   -4.576832825304    0.000000000000
 H   -2.669296720074   -4.048342825304    0.000000000000
 H   -1.849686720074   -5.587112825304    0.000000000000
 O   -0.588696720074   -2.676192825304    0.000000000000
 H    1.501023279926   -4.130332825304    0.000000000000
 H    0.635393279926   -5.421302825304    0.890800000000
 H    0.635393279926   -5.421302825304   -0.890800000000
LI   -0.203506720074   -0.925132825304    0.000000000000
 O    0.612880720932    2.786135360393    0.000000000000
 C    0.652904887198    4.038846136516    0.000000000000
 N    1.829350117158    4.686776415022    0.000000000000
 H    2.693481891465    4.158284729626    0.000000000000
 H    1.873873458393    5.697058608413    0.000000000000
 C   -0.593808427666    4.886705323258    0.000000000000
 H   -1.476845377438    4.240277017150    0.000000000000
 H   -0.611208938147    5.531253885873   -0.890802156242
 H   -0.611208938147    5.531253885873    0.890802156242
