19

 C    0.607853828912   -4.822856407934    0.000000000000
 C   -0.638856171088   -3.974996407934    0.000000000000
 N   -1.815306171088   -4.622926407934    0.000000000000
 H   -2.679436171088   -4.094436407934    0.000000000000
 H   -1.859826171088   -5.633206407934    0.000000000000
 O   -0.598836171088   -2.722286407934    0.000000000000
 H    1.490883828912   -4.176426407934    0.000000000000
 H    0.625253828912   -5.467396407934    0.890800000000
 H    0.625253828912   -5.467396407934   -0.890800000000
LI   -0.213646171088   -0.971226407934    0.000000000000
 O    0.624225149944    2.837706730019    0.000000000000
 C    0.664249316210    4.090417506142    0.000000000000
 N    1.840694546170    4.738347784647    0.000000000000
 H    2.704826320477    4.209856099251    0.000000000000
 H    1.885217887405    5.748629978038    0.000000000000
 C   -0.582463998654    4.938276692883    0.000000000000
 H   -1.465500948425    4.291848386775    0.000000000000
 H   -0.599864509135    5.582825255498   -0.890802156242
 H   -0.599864509135    5.582825255498    0.890802156242
