19

 C    0.587574926883   -4.915043573193    0.000000000000
 C   -0.659135073117   -4.067183573193    0.000000000000
 N   -1.835585073117   -4.715113573193    0.000000000000
 H   -2.699715073117   -4.186623573193    0.000000000000
 H   -1.880105073117   -5.725393573193    0.000000000000
 O   -0.619115073117   -2.814473573193    0.000000000000
 H    1.470604926883   -4.268613573193    0.000000000000
 H    0.604974926883   -5.559583573193    0.890800000000
 H    0.604974926883   -5.559583573193   -0.890800000000
LI   -0.233925073117   -1.063413573193    0.000000000000
 O    0.646914007969    2.940849469269    0.000000000000
 C    0.686938174234    4.193560245392    0.000000000000
 N    1.863383404194    4.841490523898    0.000000000000
 H    2.727515178501    4.312998838502    0.000000000000
 H    1.907906745429    5.851772717289    0.000000000000
 C   -0.559775140629    5.041419432134    0.000000000000
 H   -1.442812090401    4.394991126026    0.000000000000
 H   -0.577175651111    5.685967994749   -0.890802156242
 H   -0.577175651111    5.685967994749    0.890802156242
