19

 C    0.547017122825   -5.099417903713    0.000000000000
 C   -0.699692877175   -4.251557903713    0.000000000000
 N   -1.876142877175   -4.899487903713    0.000000000000
 H   -2.740272877175   -4.370997903713    0.000000000000
 H   -1.920662877175   -5.909767903713    0.000000000000
 O   -0.659672877175   -2.998847903713    0.000000000000
 H    1.430047122825   -4.452987903713    0.000000000000
 H    0.564417122825   -5.743957903713    0.890800000000
 H    0.564417122825   -5.743957903713   -0.890800000000
LI   -0.274482877175   -1.247787903713    0.000000000000
 O    0.692291724017    3.147134947770    0.000000000000
 C    0.732315890282    4.399845723893    0.000000000000
 N    1.908761120242    5.047776002399    0.000000000000
 H    2.772892894550    4.519284317003    0.000000000000
 H    1.953284461478    6.058058195790    0.000000000000
 C   -0.514397424581    5.247704910635    0.000000000000
 H   -1.397434374353    4.601276604527    0.000000000000
 H   -0.531797935062    5.892253473250   -0.890802156242
 H   -0.531797935062    5.892253473250    0.890802156242
