19

 C    0.445622612682   -5.560353730012    0.000000000000
 C   -0.801087387318   -4.712493730012    0.000000000000
 N   -1.977537387318   -5.360423730012    0.000000000000
 H   -2.841667387318   -4.831933730012    0.000000000000
 H   -2.022057387318   -6.370703730012    0.000000000000
 O   -0.761067387318   -3.459783730012    0.000000000000
 H    1.328652612682   -4.913923730012    0.000000000000
 H    0.463022612682   -6.204893730012    0.890800000000
 H    0.463022612682   -6.204893730012   -0.890800000000
LI   -0.375877387318   -1.708723730012    0.000000000000
 O    0.805736014138    3.662848644023    0.000000000000
 C    0.845760180404    4.915559420146    0.000000000000
 N    2.022205410364    5.563489698652    0.000000000000
 H    2.886337184671    5.034998013256    0.000000000000
 H    2.066728751599    6.573771892043    0.000000000000
 C   -0.400953134460    5.763418606888    0.000000000000
 H   -1.283990084232    5.116990300780    0.000000000000
 H   -0.418353644941    6.407967169503   -0.890802156242
 H   -0.418353644941    6.407967169503    0.890802156242
