19

 C    0.435483161667   -5.606447312642    0.000000000000
 C   -0.811226838333   -4.758587312642    0.000000000000
 N   -1.987676838333   -5.406517312642    0.000000000000
 H   -2.851806838333   -4.878027312642    0.000000000000
 H   -2.032196838333   -6.416797312642    0.000000000000
 O   -0.771206838333   -3.505877312642    0.000000000000
 H    1.318513161667   -4.960017312642    0.000000000000
 H    0.452883161667   -6.250987312642    0.890800000000
 H    0.452883161667   -6.250987312642   -0.890800000000
LI   -0.386016838333   -1.754817312642    0.000000000000
 O    0.817080443150    3.714420013648    0.000000000000
 C    0.857104609416    4.967130789771    0.000000000000
 N    2.033549839376    5.615061068277    0.000000000000
 H    2.897681613683    5.086569382881    0.000000000000
 H    2.078073180611    6.625343261668    0.000000000000
 C   -0.389608705448    5.814989976513    0.000000000000
 H   -1.272645655219    5.168561670405    0.000000000000
 H   -0.407009215929    6.459538539128   -0.890802156242
 H   -0.407009215929    6.459538539128    0.890802156242
