19

 C    0.384785906595   -5.836915225792    0.000000000000
 C   -0.861924093405   -4.989055225792    0.000000000000
 N   -2.038374093405   -5.636985225792    0.000000000000
 H   -2.902504093405   -5.108495225792    0.000000000000
 H   -2.082894093405   -6.647265225792    0.000000000000
 O   -0.821904093405   -3.736345225792    0.000000000000
 H    1.267815906595   -5.190485225792    0.000000000000
 H    0.402185906595   -6.481455225792    0.890800000000
 H    0.402185906595   -6.481455225792   -0.890800000000
LI   -0.436714093405   -1.985285225792    0.000000000000
 O    0.873802588211    3.972276861775    0.000000000000
 C    0.913826754476    5.224987637898    0.000000000000
 N    2.090271984436    5.872917916403    0.000000000000
 H    2.954403758744    5.344426231008    0.000000000000
 H    2.134795325672    6.883200109795    0.000000000000
 C   -0.332886560387    6.072846824639    0.000000000000
 H   -1.215923510159    5.426418518531    0.000000000000
 H   -0.350287070868    6.717395387254   -0.890802156242
 H   -0.350287070868    6.717395387254    0.890802156242
