19

 C    0.334088651524   -6.067383138941    0.000000000000
 C   -0.912621348476   -5.219523138941    0.000000000000
 N   -2.089071348476   -5.867453138941    0.000000000000
 H   -2.953201348476   -5.338963138941    0.000000000000
 H   -2.133591348476   -6.877733138941    0.000000000000
 O   -0.872601348476   -3.966813138941    0.000000000000
 H    1.217118651524   -5.420953138941    0.000000000000
 H    0.351488651524   -6.711923138941    0.890800000000
 H    0.351488651524   -6.711923138941   -0.890800000000
LI   -0.487411348476   -2.215753138941    0.000000000000
 O    0.930524733272    4.230133709901    0.000000000000
 C    0.970548899537    5.482844486024    0.000000000000
 N    2.146994129497    6.130774764530    0.000000000000
 H    3.011125903804    5.602283079134    0.000000000000
 H    2.191517470732    7.141056957921    0.000000000000
 C   -0.276164415326    6.330703672766    0.000000000000
 H   -1.159201365098    5.684275366658    0.000000000000
 H   -0.293564925808    6.975252235381   -0.890802156242
 H   -0.293564925808    6.975252235381    0.890802156242
