19

 C    0.293530847466   -6.251757469461    0.000000000000
 C   -0.953179152534   -5.403897469461    0.000000000000
 N   -2.129629152534   -6.051827469461    0.000000000000
 H   -2.993759152534   -5.523337469461    0.000000000000
 H   -2.174149152534   -7.062107469461    0.000000000000
 O   -0.913159152534   -4.151187469461    0.000000000000
 H    1.176560847466   -5.605327469461    0.000000000000
 H    0.310930847466   -6.896297469461    0.890800000000
 H    0.310930847466   -6.896297469461   -0.890800000000
LI   -0.527969152534   -2.400127469461    0.000000000000
 O    0.975902449320    4.436419188402    0.000000000000
 C    1.015926615585    5.689129964525    0.000000000000
 N    2.192371845545    6.337060243031    0.000000000000
 H    3.056503619853    5.808568557635    0.000000000000
 H    2.236895186781    7.347342436422    0.000000000000
 C   -0.230786699278    6.536989151267    0.000000000000
 H   -1.113823649050    5.890560845159    0.000000000000
 H   -0.248187209759    7.181537713882   -0.890802156242
 H   -0.248187209759    7.181537713882    0.890802156242
