19

 C    0.283391396452   -6.297851052091    0.000000000000
 C   -0.963318603548   -5.449991052091    0.000000000000
 N   -2.139768603548   -6.097921052091    0.000000000000
 H   -3.003898603548   -5.569431052091    0.000000000000
 H   -2.184288603548   -7.108201052091    0.000000000000
 O   -0.923298603548   -4.197281052091    0.000000000000
 H    1.166421396452   -5.651421052091    0.000000000000
 H    0.300791396452   -6.942391052091    0.890800000000
 H    0.300791396452   -6.942391052091   -0.890800000000
LI   -0.538108603548   -2.446221052091    0.000000000000
 O    0.987246878332    4.487990558027    0.000000000000
 C    1.027271044598    5.740701334151    0.000000000000
 N    2.203716274558    6.388631612656    0.000000000000
 H    3.067848048865    5.860139927260    0.000000000000
 H    2.248239615793    7.398913806047    0.000000000000
 C   -0.219442270266    6.588560520892    0.000000000000
 H   -1.102479220038    5.942132214784    0.000000000000
 H   -0.236842780747    7.233109083507   -0.890802156242
 H   -0.236842780747    7.233109083507    0.890802156242
