19

 C    0.273251945437   -6.343944634721    0.000000000000
 C   -0.973458054563   -5.496084634721    0.000000000000
 N   -2.149908054563   -6.144014634721    0.000000000000
 H   -3.014038054563   -5.615524634721    0.000000000000
 H   -2.194428054563   -7.154294634721    0.000000000000
 O   -0.933438054563   -4.243374634721    0.000000000000
 H    1.156281945437   -5.697514634721    0.000000000000
 H    0.290651945437   -6.988484634721    0.890800000000
 H    0.290651945437   -6.988484634721   -0.890800000000
LI   -0.548248054563   -2.492314634721    0.000000000000
 O    0.998591307344    4.539561927653    0.000000000000
 C    1.038615473610    5.792272703776    0.000000000000
 N    2.215060703570    6.440202982281    0.000000000000
 H    3.079192477877    5.911711296886    0.000000000000
 H    2.259584044805    7.450485175673    0.000000000000
 C   -0.208097841254    6.640131890518    0.000000000000
 H   -1.091134791026    5.993703584410    0.000000000000
 H   -0.225498351735    7.284680453132   -0.890802156242
 H   -0.225498351735    7.284680453132    0.890802156242
