19

 C    0.242833592394   -6.482225382610    0.000000000000
 C   -1.003876407606   -5.634365382610    0.000000000000
 N   -2.180326407606   -6.282295382610    0.000000000000
 H   -3.044456407606   -5.753805382610    0.000000000000
 H   -2.224846407606   -7.292575382610    0.000000000000
 O   -0.963856407606   -4.381655382610    0.000000000000
 H    1.125863592394   -5.835795382610    0.000000000000
 H    0.260233592394   -7.126765382610    0.890800000000
 H    0.260233592394   -7.126765382610   -0.890800000000
LI   -0.578666407606   -2.630595382610    0.000000000000
 O    1.032624594381    4.694276036529    0.000000000000
 C    1.072648760646    5.946986812652    0.000000000000
 N    2.249093990606    6.594917091157    0.000000000000
 H    3.113225764913    6.066425405761    0.000000000000
 H    2.293617331841    7.605199284549    0.000000000000
 C   -0.174064554217    6.794845999393    0.000000000000
 H   -1.057101503989    6.148417693285    0.000000000000
 H   -0.191465064699    7.439394562008   -0.890802156242
 H   -0.191465064699    7.439394562008    0.890802156242
