19

 C    0.151578533265   -6.897067626279    0.000000000000
 C   -1.095131466735   -6.049207626279    0.000000000000
 N   -2.271581466735   -6.697137626279    0.000000000000
 H   -3.135711466735   -6.168647626279    0.000000000000
 H   -2.316101466735   -7.707417626279    0.000000000000
 O   -1.055111466735   -4.796497626279    0.000000000000
 H    1.034608533265   -6.250637626279    0.000000000000
 H    0.168978533265   -7.541607626279    0.890800000000
 H    0.168978533265   -7.541607626279   -0.890800000000
LI   -0.669921466735   -3.045437626279    0.000000000000
 O    1.134724455490    5.158418363156    0.000000000000
 C    1.174748621755    6.411129139279    0.000000000000
 N    2.351193851715    7.059059417785    0.000000000000
 H    3.215325626022    6.530567732389    0.000000000000
 H    2.395717192950    8.069341611176    0.000000000000
 C   -0.071964693108    7.258988326021    0.000000000000
 H   -0.955001642880    6.612560019913    0.000000000000
 H   -0.089365203590    7.903536888636   -0.890802156242
 H   -0.089365203590    7.903536888636    0.890802156242
