19

 C    0.131299631236   -6.989254791539    0.000000000000
 C   -1.115410368764   -6.141394791539    0.000000000000
 N   -2.291860368764   -6.789324791539    0.000000000000
 H   -3.155990368764   -6.260834791539    0.000000000000
 H   -2.336380368764   -7.799604791539    0.000000000000
 O   -1.075390368764   -4.888684791539    0.000000000000
 H    1.014329631236   -6.342824791539    0.000000000000
 H    0.148699631236   -7.633794791539    0.890800000000
 H    0.148699631236   -7.633794791539   -0.890800000000
LI   -0.690200368764   -3.137624791539    0.000000000000
 O    1.157413313514    5.261561102407    0.000000000000
 C    1.197437479779    6.514271878530    0.000000000000
 N    2.373882709739    7.162202157035    0.000000000000
 H    3.238014484047    6.633710471640    0.000000000000
 H    2.418406050975    8.172484350427    0.000000000000
 C   -0.049275835084    7.362131065271    0.000000000000
 H   -0.932312784856    6.715702759163    0.000000000000
 H   -0.066676345565    8.006679627886   -0.890802156242
 H   -0.066676345565    8.006679627886    0.890802156242
