19

 C    0.121160180222   -7.035348374169    0.000000000000
 C   -1.125549819778   -6.187488374169    0.000000000000
 N   -2.301999819778   -6.835418374169    0.000000000000
 H   -3.166129819778   -6.306928374169    0.000000000000
 H   -2.346519819778   -7.845698374169    0.000000000000
 O   -1.085529819778   -4.934778374169    0.000000000000
 H    1.004190180222   -6.388918374169    0.000000000000
 H    0.138560180222   -7.679888374169    0.890800000000
 H    0.138560180222   -7.679888374169   -0.890800000000
LI   -0.700339819778   -3.183718374169    0.000000000000
 O    1.168757742526    5.313132472032    0.000000000000
 C    1.208781908792    6.565843248155    0.000000000000
 N    2.385227138751    7.213773526661    0.000000000000
 H    3.249358913059    6.685281841265    0.000000000000
 H    2.429750479987    8.224055720052    0.000000000000
 C   -0.037931406072    7.413702434897    0.000000000000
 H   -0.920968355844    6.767274128789    0.000000000000
 H   -0.055331916553    8.058250997511   -0.890802156242
 H   -0.055331916553    8.058250997511    0.890802156242
