19

 C    0.111020729208   -7.081441956799    0.000000000000
 C   -1.135689270792   -6.233581956799    0.000000000000
 N   -2.312139270792   -6.881511956799    0.000000000000
 H   -3.176269270792   -6.353021956799    0.000000000000
 H   -2.356659270792   -7.891791956799    0.000000000000
 O   -1.095669270792   -4.980871956799    0.000000000000
 H    0.994050729208   -6.435011956799    0.000000000000
 H    0.128420729208   -7.725981956799    0.890800000000
 H    0.128420729208   -7.725981956799   -0.890800000000
LI   -0.710479270792   -3.229811956799    0.000000000000
 O    1.180102171538    5.364703841657    0.000000000000
 C    1.220126337804    6.617414617780    0.000000000000
 N    2.396571567764    7.265344896286    0.000000000000
 H    3.260703342071    6.736853210890    0.000000000000
 H    2.441094908999    8.275627089677    0.000000000000
 C   -0.026586977060    7.465273804522    0.000000000000
 H   -0.909623926832    6.818845498414    0.000000000000
 H   -0.043987487541    8.109822367137   -0.890802156242
 H   -0.043987487541    8.109822367137    0.890802156242
