19

 C    0.090741827179   -7.173629122059    0.000000000000
 C   -1.155968172821   -6.325769122059    0.000000000000
 N   -2.332418172821   -6.973699122059    0.000000000000
 H   -3.196548172821   -6.445209122059    0.000000000000
 H   -2.376938172821   -7.983979122059    0.000000000000
 O   -1.115948172821   -5.073059122059    0.000000000000
 H    0.973771827179   -6.527199122059    0.000000000000
 H    0.108141827179   -7.818169122059    0.890800000000
 H    0.108141827179   -7.818169122059   -0.890800000000
LI   -0.730758172821   -3.321999122059    0.000000000000
 O    1.202791029562    5.467846580908    0.000000000000
 C    1.242815195828    6.720557357031    0.000000000000
 N    2.419260425788    7.368487635537    0.000000000000
 H    3.283392200095    6.839995950141    0.000000000000
 H    2.463783767023    8.378769828928    0.000000000000
 C   -0.003898119036    7.568416543773    0.000000000000
 H   -0.886935068807    6.921988237665    0.000000000000
 H   -0.021298629517    8.212965106387   -0.890802156242
 H   -0.021298629517    8.212965106387    0.890802156242
