19

 C    0.040044572107   -7.404097035208    0.000000000000
 C   -1.206665427893   -6.556237035208    0.000000000000
 N   -2.383115427893   -7.204167035208    0.000000000000
 H   -3.247245427893   -6.675677035208    0.000000000000
 H   -2.427635427893   -8.214447035208    0.000000000000
 O   -1.166645427893   -5.303527035208    0.000000000000
 H    0.923074572107   -6.757667035208    0.000000000000
 H    0.057444572107   -8.048637035208    0.890800000000
 H    0.057444572107   -8.048637035208   -0.890800000000
LI   -0.781455427893   -3.552467035208    0.000000000000
 O    1.259513174623    5.725703429034    0.000000000000
 C    1.299537340888    6.978414205157    0.000000000000
 N    2.475982570848    7.626344483663    0.000000000000
 H    3.340114345156    7.097852798267    0.000000000000
 H    2.520505912084    8.636626677054    0.000000000000
 C    0.052824026025    7.826273391899    0.000000000000
 H   -0.830212923747    7.179845085791    0.000000000000
 H    0.035423515544    8.470821954514   -0.890802156242
 H    0.035423515544    8.470821954514    0.890802156242
