19

 C    0.029905121093   -7.450190617838    0.000000000000
 C   -1.216804878907   -6.602330617838    0.000000000000
 N   -2.393254878907   -7.250260617838    0.000000000000
 H   -3.257384878907   -6.721770617838    0.000000000000
 H   -2.437774878907   -8.260540617838    0.000000000000
 O   -1.176784878907   -5.349620617838    0.000000000000
 H    0.912935121093   -6.803760617838    0.000000000000
 H    0.047305121093   -8.094730617838    0.890800000000
 H    0.047305121093   -8.094730617838   -0.890800000000
LI   -0.791594878907   -3.598560617838    0.000000000000
 O    1.270857603635    5.777274798659    0.000000000000
 C    1.310881769901    7.029985574783    0.000000000000
 N    2.487326999861    7.677915853288    0.000000000000
 H    3.351458774168    7.149424167892    0.000000000000
 H    2.531850341096    8.688198046679    0.000000000000
 C    0.064168455037    7.877844761524    0.000000000000
 H   -0.818868494735    7.231416455416    0.000000000000
 H    0.046767944556    8.522393324139   -0.890802156242
 H    0.046767944556    8.522393324139    0.890802156242
