19

 C    0.019765670078   -7.496284200468    0.000000000000
 C   -1.226944329922   -6.648424200468    0.000000000000
 N   -2.403394329922   -7.296354200468    0.000000000000
 H   -3.267524329922   -6.767864200468    0.000000000000
 H   -2.447914329922   -8.306634200468    0.000000000000
 O   -1.186924329922   -5.395714200468    0.000000000000
 H    0.902795670078   -6.849854200468    0.000000000000
 H    0.037165670078   -8.140824200468    0.890800000000
 H    0.037165670078   -8.140824200468   -0.890800000000
LI   -0.801734329922   -3.644654200468    0.000000000000
 O    1.282202032647    5.828846168285    0.000000000000
 C    1.322226198913    7.081556944408    0.000000000000
 N    2.498671428873    7.729487222913    0.000000000000
 H    3.362803203180    7.200995537518    0.000000000000
 H    2.543194770108    8.739769416305    0.000000000000
 C    0.075512884049    7.929416131149    0.000000000000
 H   -0.807524065723    7.282987825042    0.000000000000
 H    0.058112373568    8.573964693764   -0.890802156242
 H    0.058112373568    8.573964693764    0.890802156242
