19

 C    0.009626219064   -7.542377783098    0.000000000000
 C   -1.237083780936   -6.694517783098    0.000000000000
 N   -2.413533780936   -7.342447783098    0.000000000000
 H   -3.277663780936   -6.813957783098    0.000000000000
 H   -2.458053780936   -8.352727783098    0.000000000000
 O   -1.197063780936   -5.441807783098    0.000000000000
 H    0.892656219064   -6.895947783098    0.000000000000
 H    0.027026219064   -8.186917783098    0.890800000000
 H    0.027026219064   -8.186917783098   -0.890800000000
LI   -0.811873780936   -3.690747783098    0.000000000000
 O    1.293546461659    5.880417537910    0.000000000000
 C    1.333570627925    7.133128314033    0.000000000000
 N    2.510015857885    7.781058592539    0.000000000000
 H    3.374147632192    7.252566907143    0.000000000000
 H    2.554539199120    8.791340785930    0.000000000000
 C    0.086857313061    7.980987500775    0.000000000000
 H   -0.796179636710    7.334559194667    0.000000000000
 H    0.069456802580    8.625536063390   -0.890802156242
 H    0.069456802580    8.625536063390    0.890802156242
