8

 C    0.073953159728   -2.215381574833    0.000000000000
 H    1.109453159728   -2.591469574833    0.000000000000
 H   -0.459246840272   -2.596084574833    0.888337000000
 H   -0.459246840272   -2.596084574833   -0.888337000000
 C    0.032187159728   -0.659297574833    0.000000000000
 O   -1.135008840272   -0.153074574833    0.000000000000
 O    1.156258159728   -0.063879574833    0.000000000000
RB   -0.021269350613    0.539511167837    0.000000000000
