8

 C    0.076581313859   -2.274320217273    0.000000000000
 H    1.112081313859   -2.650408217273    0.000000000000
 H   -0.456618686141   -2.655023217273    0.888337000000
 H   -0.456618686141   -2.655023217273   -0.888337000000
 C    0.034815313859   -0.718236217273    0.000000000000
 O   -1.132380686141   -0.212013217273    0.000000000000
 O    1.158886313859   -0.122818217273    0.000000000000
RB   -0.023095905678    0.580473253953    0.000000000000
