8

 C    0.081837622120   -2.392197502154    0.000000000000
 H    1.117337622120   -2.768285502154    0.000000000000
 H   -0.451362377880   -2.772900502154    0.888337000000
 H   -0.451362377880   -2.772900502154   -0.888337000000
 C    0.040071622120   -0.836113502154    0.000000000000
 O   -1.127124377880   -0.329890502154    0.000000000000
 O    1.164142622120   -0.240695502154    0.000000000000
RB   -0.026749015806    0.662397426184    0.000000000000
