8

 C    0.305230723240   -7.401982109578    0.000000000000
 H    1.340730723240   -7.778070109578    0.000000000000
 H   -0.227969276760   -7.782685109578    0.888337000000
 H   -0.227969276760   -7.782685109578   -0.888337000000
 C    0.263464723240   -5.845898109578    0.000000000000
 O   -0.903731276760   -5.339675109578    0.000000000000
 O    1.387535723240   -5.250480109578    0.000000000000
RB   -0.182006196271    4.144174746006    0.000000000000
