8

 C    0.094978392774   -2.686890714355    0.000000000000
 H    1.130478392774   -3.062978714355    0.000000000000
 H   -0.438221607226   -3.067593714355    0.888337000000
 H   -0.438221607226   -3.067593714355   -0.888337000000
 C    0.053212392774   -1.130806714355    0.000000000000
 O   -1.113983607226   -0.624583714355    0.000000000000
 O    1.177283392774   -0.535388714355    0.000000000000
RB   -0.035881791128    0.867207856762    0.000000000000
