8

 C    0.105491009298   -2.922645284116    0.000000000000
 H    1.140991009298   -3.298733284116    0.000000000000
 H   -0.427708990702   -3.303348284116    0.888337000000
 H   -0.427708990702   -3.303348284116   -0.888337000000
 C    0.063725009298   -1.366561284116    0.000000000000
 O   -1.103470990702   -0.860338284116    0.000000000000
 O    1.187796009298   -0.771143284116    0.000000000000
RB   -0.043188011385    1.031056201224    0.000000000000
