8

 C    0.108119163429   -2.981583926557    0.000000000000
 H    1.143619163429   -3.357671926557    0.000000000000
 H   -0.425080836571   -3.362286926557    0.888337000000
 H   -0.425080836571   -3.362286926557   -0.888337000000
 C    0.066353163429   -1.425499926557    0.000000000000
 O   -1.100842836571   -0.919276926557    0.000000000000
 O    1.190424163429   -0.830081926557    0.000000000000
RB   -0.045014566449    1.072018287339    0.000000000000
