8

 C    0.129144396475   -3.453093066079    0.000000000000
 H    1.164644396475   -3.829181066079    0.000000000000
 H   -0.404055603525   -3.833796066079    0.888337000000
 H   -0.404055603525   -3.833796066079   -0.888337000000
 C    0.087378396475   -1.897009066079    0.000000000000
 O   -1.079817603525   -1.390786066079    0.000000000000
 O    1.211449396475   -1.301591066079    0.000000000000
RB   -0.059627006964    1.399714976264    0.000000000000
