8

 C    0.139657012998   -3.688847635840    0.000000000000
 H    1.175157012998   -4.064935635840    0.000000000000
 H   -0.393542987002   -4.069550635840    0.888337000000
 H   -0.393542987002   -4.069550635840   -0.888337000000
 C    0.097891012998   -2.132763635840    0.000000000000
 O   -1.069304987002   -1.626540635840    0.000000000000
 O    1.221962012998   -1.537345635840    0.000000000000
RB   -0.066933227221    1.563563320726    0.000000000000
