8

 C    0.150169629522   -3.924602205601    0.000000000000
 H    1.185669629522   -4.300690205601    0.000000000000
 H   -0.383030370478   -4.305305205601    0.888337000000
 H   -0.383030370478   -4.305305205601   -0.888337000000
 C    0.108403629522   -2.368518205601    0.000000000000
 O   -1.058792370478   -1.862295205601    0.000000000000
 O    1.232474629522   -1.773100205601    0.000000000000
RB   -0.074239447478    1.727411665188    0.000000000000
