8

 C    0.152797783653   -3.983540848041    0.000000000000
 H    1.188297783653   -4.359628848041    0.000000000000
 H   -0.380402216347   -4.364243848041    0.888337000000
 H   -0.380402216347   -4.364243848041   -0.888337000000
 C    0.111031783653   -2.427456848041    0.000000000000
 O   -1.056164216347   -1.921233848041    0.000000000000
 O    1.235102783653   -1.832038848041    0.000000000000
RB   -0.076066002542    1.768373751304    0.000000000000
