8

 C    0.168566708438   -4.337172702683    0.000000000000
 H    1.204066708438   -4.713260702683    0.000000000000
 H   -0.364633291562   -4.717875702683    0.888337000000
 H   -0.364633291562   -4.717875702683   -0.888337000000
 C    0.126800708438   -2.781088702683    0.000000000000
 O   -1.040395291562   -2.274865702683    0.000000000000
 O    1.250871708438   -2.185670702683    0.000000000000
RB   -0.087025332928    2.014146267997    0.000000000000
