8

 C    0.171194862568   -4.396111345123    0.000000000000
 H    1.206694862568   -4.772199345123    0.000000000000
 H   -0.362005137432   -4.776814345123    0.888337000000
 H   -0.362005137432   -4.776814345123   -0.888337000000
 C    0.129428862568   -2.840027345123    0.000000000000
 O   -1.037767137432   -2.333804345123    0.000000000000
 O    1.253499862568   -2.244609345123    0.000000000000
RB   -0.088851887992    2.055108354113    0.000000000000
