8

 C    0.184335633222   -4.690804557325    0.000000000000
 H    1.219835633222   -5.066892557325    0.000000000000
 H   -0.348864366778   -5.071507557325    0.888337000000
 H   -0.348864366778   -5.071507557325   -0.888337000000
 C    0.142569633222   -3.134720557325    0.000000000000
 O   -1.024626366778   -2.628497557325    0.000000000000
 O    1.266640633222   -2.539302557325    0.000000000000
RB   -0.097984663314    2.259918784690    0.000000000000
