8

 C    0.197476403877   -4.985497769526    0.000000000000
 H    1.232976403877   -5.361585769526    0.000000000000
 H   -0.335723596123   -5.366200769526    0.888337000000
 H   -0.335723596123   -5.366200769526   -0.888337000000
 C    0.155710403877   -3.429413769526    0.000000000000
 O   -1.011485596123   -2.923190769526    0.000000000000
 O    1.279781403877   -2.833995769526    0.000000000000
RB   -0.107117438635    2.464729215268    0.000000000000
