8

 C    0.205360866269   -5.162313696847    0.000000000000
 H    1.240860866269   -5.538401696847    0.000000000000
 H   -0.327839133731   -5.543016696847    0.888337000000
 H   -0.327839133731   -5.543016696847   -0.888337000000
 C    0.163594866269   -3.606229696847    0.000000000000
 O   -1.003601133731   -3.100006696847    0.000000000000
 O    1.287665866269   -3.010811696847    0.000000000000
RB   -0.112597103828    2.587615473615    0.000000000000
