8

 C    0.213245328661   -5.339129624168    0.000000000000
 H    1.248745328661   -5.715217624168    0.000000000000
 H   -0.319954671339   -5.719832624168    0.888337000000
 H   -0.319954671339   -5.719832624168   -0.888337000000
 C    0.171479328661   -3.783045624168    0.000000000000
 O   -0.995716671339   -3.276822624168    0.000000000000
 O    1.295550328661   -3.187627624168    0.000000000000
RB   -0.118076769021    2.710501731961    0.000000000000
