8

 C    0.218501636923   -5.457006909049    0.000000000000
 H    1.254001636923   -5.833094909049    0.000000000000
 H   -0.314698363077   -5.837709909049    0.888337000000
 H   -0.314698363077   -5.837709909049   -0.888337000000
 C    0.176735636923   -3.900922909049    0.000000000000
 O   -0.990460363077   -3.394699909049    0.000000000000
 O    1.300806636923   -3.305504909049    0.000000000000
RB   -0.121729879149    2.792425904192    0.000000000000
