8

 C    0.223757945185   -5.574884193929    0.000000000000
 H    1.259257945185   -5.950972193929    0.000000000000
 H   -0.309442054815   -5.955587193929    0.888337000000
 H   -0.309442054815   -5.955587193929   -0.888337000000
 C    0.181991945185   -4.018800193929    0.000000000000
 O   -0.985204054815   -3.512577193929    0.000000000000
 O    1.306062945185   -3.423382193929    0.000000000000
RB   -0.125382989278    2.874350076424    0.000000000000
