8

 C    0.226386099316   -5.633822836370    0.000000000000
 H    1.261886099316   -6.009910836370    0.000000000000
 H   -0.306813900684   -6.014525836370    0.888337000000
 H   -0.306813900684   -6.014525836370   -0.888337000000
 C    0.184620099316   -4.077738836370    0.000000000000
 O   -0.982575900684   -3.571515836370    0.000000000000
 O    1.308691099316   -3.482320836370    0.000000000000
RB   -0.127209544342    2.915312162539    0.000000000000
