8

 C    0.229014253446   -5.692761478810    0.000000000000
 H    1.264514253446   -6.068849478810    0.000000000000
 H   -0.304185746554   -6.073464478810    0.888337000000
 H   -0.304185746554   -6.073464478810   -0.888337000000
 C    0.187248253446   -4.136677478810    0.000000000000
 O   -0.979947746554   -3.630454478810    0.000000000000
 O    1.311319253446   -3.541259478810    0.000000000000
RB   -0.129036099407    2.956274248655    0.000000000000
