8

 C    0.236898715839   -5.869577406131    0.000000000000
 H    1.272398715839   -6.245665406131    0.000000000000
 H   -0.296301284161   -6.250280406131    0.888337000000
 H   -0.296301284161   -6.250280406131   -0.888337000000
 C    0.195132715839   -4.313493406131    0.000000000000
 O   -0.972063284161   -3.807270406131    0.000000000000
 O    1.319203715839   -3.718075406131    0.000000000000
RB   -0.134515764599    3.079160507001    0.000000000000
