8

 C    0.244783178231   -6.046393333452    0.000000000000
 H    1.280283178231   -6.422481333452    0.000000000000
 H   -0.288416821769   -6.427096333452    0.888337000000
 H   -0.288416821769   -6.427096333452   -0.888337000000
 C    0.203017178231   -4.490309333452    0.000000000000
 O   -0.964178821769   -3.984086333452    0.000000000000
 O    1.327088178231   -3.894891333452    0.000000000000
RB   -0.139995429792    3.202046765348    0.000000000000
