8

 C    0.247411332362   -6.105331975892    0.000000000000
 H    1.282911332362   -6.481419975892    0.000000000000
 H   -0.285788667638   -6.486034975892    0.888337000000
 H   -0.285788667638   -6.486034975892   -0.888337000000
 C    0.205645332362   -4.549247975892    0.000000000000
 O   -0.961550667638   -4.043024975892    0.000000000000
 O    1.329716332362   -3.953829975892    0.000000000000
RB   -0.141821984857    3.243008851463    0.000000000000
