8

 C    0.255295794755   -6.282147903213    0.000000000000
 H    1.290795794755   -6.658235903213    0.000000000000
 H   -0.277904205245   -6.662850903213    0.888337000000
 H   -0.277904205245   -6.662850903213   -0.888337000000
 C    0.213529794755   -4.726063903213    0.000000000000
 O   -0.953666205245   -4.219840903213    0.000000000000
 O    1.337600794755   -4.130645903213    0.000000000000
RB   -0.147301650049    3.365895109810    0.000000000000
