8

 C    0.260552103016   -6.400025188093    0.000000000000
 H    1.296052103016   -6.776113188093    0.000000000000
 H   -0.272647896984   -6.780728188093    0.888337000000
 H   -0.272647896984   -6.780728188093   -0.888337000000
 C    0.218786103016   -4.843941188093    0.000000000000
 O   -0.948409896984   -4.337718188093    0.000000000000
 O    1.342857103016   -4.248523188093    0.000000000000
RB   -0.150954760178    3.447819282041    0.000000000000
