8

 C    0.263180257147   -6.458963830534    0.000000000000
 H    1.298680257147   -6.835051830534    0.000000000000
 H   -0.270019742853   -6.839666830534    0.888337000000
 H   -0.270019742853   -6.839666830534   -0.888337000000
 C    0.221414257147   -4.902879830534    0.000000000000
 O   -0.945781742853   -4.396656830534    0.000000000000
 O    1.345485257147   -4.307461830534    0.000000000000
RB   -0.152781315242    3.488781368157    0.000000000000
