8

 C    0.268436565409   -6.576841115414    0.000000000000
 H    1.303936565409   -6.952929115414    0.000000000000
 H   -0.264763434591   -6.957544115414    0.888337000000
 H   -0.264763434591   -6.957544115414   -0.888337000000
 C    0.226670565409   -5.020757115414    0.000000000000
 O   -0.940525434591   -4.514534115414    0.000000000000
 O    1.350741565409   -4.425339115414    0.000000000000
RB   -0.156434425371    3.570705540388    0.000000000000
