8

 C    0.281577336063   -6.871534327616    0.000000000000
 H    1.317077336063   -7.247622327616    0.000000000000
 H   -0.251622663937   -7.252237327616    0.888337000000
 H   -0.251622663937   -7.252237327616   -0.888337000000
 C    0.239811336063   -5.315450327616    0.000000000000
 O   -0.927384663937   -4.809227327616    0.000000000000
 O    1.363882336063   -4.720032327616    0.000000000000
RB   -0.165567200692    3.775515970966    0.000000000000
