8

 C    0.286833644325   -6.989411612496    0.000000000000
 H    1.322333644325   -7.365499612496    0.000000000000
 H   -0.246366355675   -7.370114612496    0.888337000000
 H   -0.246366355675   -7.370114612496   -0.888337000000
 C    0.245067644325   -5.433327612496    0.000000000000
 O   -0.922128355675   -4.927104612496    0.000000000000
 O    1.369138644325   -4.837909612496    0.000000000000
RB   -0.169220310821    3.857440143197    0.000000000000
