8

 C    0.294718106717   -7.166227539817    0.000000000000
 H    1.330218106717   -7.542315539817    0.000000000000
 H   -0.238481893283   -7.546930539817    0.888337000000
 H   -0.238481893283   -7.546930539817   -0.888337000000
 C    0.252952106717   -5.610143539817    0.000000000000
 O   -0.914243893283   -5.103920539817    0.000000000000
 O    1.377023106717   -5.014725539817    0.000000000000
RB   -0.174699976014    3.980326401543    0.000000000000
