8

 C    0.297346260848   -7.225166182257    0.000000000000
 H    1.332846260848   -7.601254182257    0.000000000000
 H   -0.235853739152   -7.605869182257    0.888337000000
 H   -0.235853739152   -7.605869182257   -0.888337000000
 C    0.255580260848   -5.669082182257    0.000000000000
 O   -0.911615739152   -5.162859182257    0.000000000000
 O    1.379651260848   -5.073664182257    0.000000000000
RB   -0.176526531078    4.021288487659    0.000000000000
