8

 C    0.302602569109   -7.343043467138    0.000000000000
 H    1.338102569109   -7.719131467138    0.000000000000
 H   -0.230597430891   -7.723746467138    0.888337000000
 H   -0.230597430891   -7.723746467138   -0.888337000000
 C    0.260836569109   -5.786959467138    0.000000000000
 O   -0.906359430891   -5.280736467138    0.000000000000
 O    1.384907569109   -5.191541467138    0.000000000000
RB   -0.180179641207    4.103212659890    0.000000000000
