17

 N   -1.754135878183   -2.298297194694   -0.002995116192
 C   -0.543947811339   -1.643090991018    0.000966507776
 N    0.689464602964   -2.241768685480    0.013004792681
 C    1.659887803020   -1.351592543869    0.001132335708
 N    1.456810965607    0.010045589645   -0.005702824634
 H    2.260638090858    0.630006129400   -0.087690847056
 N    2.985342557257   -1.770267265549   -0.077214967527
 H    3.639878762589   -1.238464041149    0.490425809203
 H    3.064147644648   -2.770967409484    0.084368370462
 C    0.197537223290    0.696079293176    0.007250962043
 O    0.169956854185    1.924252377953    0.003162833615
 C   -0.875247902686   -0.277614096098    0.013452159983
 N   -2.246321204455   -0.091283050785    0.013376975267
 C   -2.739844698966   -1.329886064830    0.003046875602
 H   -3.797342612234   -1.584032686662    0.000100231176
 H   -1.879232874714   -3.304880279926   -0.011654667223
 K    0.147506219874    2.923994792267   -0.000164934625
