17

 N   -1.753675510003   -2.318797711055   -0.002926877647
 C   -0.543487443159   -1.663591507379    0.001034746321
 N    0.689924971144   -2.262269201841    0.013073031226
 C    1.660348171200   -1.372093060230    0.001200574253
 N    1.457271333787   -0.010454926716   -0.005634586089
 H    2.261098459038    0.609505613039   -0.087622608511
 N    2.985802925437   -1.790767781910   -0.077146728982
 H    3.640339130769   -1.258964557510    0.490494047748
 H    3.064608012828   -2.791467925845    0.084436609007
 C    0.197997591470    0.675578776815    0.007319200588
 O    0.170417222365    1.903751861592    0.003231072160
 C   -0.874787534506   -0.298114612459    0.013520398528
 N   -2.245860836275   -0.111783567146    0.013445213812
 C   -2.739384330786   -1.350386581191    0.003115114147
 H   -3.796882244054   -1.604533203023    0.000168469721
 H   -1.878772506534   -3.325380796287   -0.011586428678
 K    0.145721524624    3.003468517337   -0.000429472904
