17

 N   -1.752754773642   -2.359798743778   -0.002790400558
 C   -0.542566706798   -1.704592540102    0.001171223410
 N    0.690845707505   -2.303270234564    0.013209508315
 C    1.661268907561   -1.413094092953    0.001337051342
 N    1.458192070148   -0.051455959439   -0.005498109000
 H    2.262019195399    0.568504580316   -0.087486131422
 N    2.986723661798   -1.831768814633   -0.077010251893
 H    3.641259867130   -1.299965590233    0.490630524837
 H    3.065528749189   -2.832468958568    0.084573086096
 C    0.198918327831    0.634577744092    0.007455677677
 O    0.171337958726    1.862750828869    0.003367549249
 C   -0.873866798145   -0.339115645182    0.013656875617
 N   -2.244940099914   -0.152784599869    0.013581690901
 C   -2.738463594425   -1.391387613914    0.003251591236
 H   -3.795961507693   -1.645534235746    0.000304946810
 H   -1.877851770173   -3.366381829010   -0.011449951589
 K    0.142152134122    3.162415967477   -0.000958549463
