17

 N   -1.751834037282   -2.400799776500   -0.002653923469
 C   -0.541645970438   -1.745593572824    0.001307700499
 N    0.691766443865   -2.344271267286    0.013345985404
 C    1.662189643921   -1.454095125675    0.001473528431
 N    1.459112806508   -0.092456992161   -0.005361631911
 H    2.262939931759    0.527503547594   -0.087349654333
 N    2.987644398158   -1.872769847355   -0.076873774804
 H    3.642180603490   -1.340966622955    0.490767001926
 H    3.066449485549   -2.873469991290    0.084709563185
 C    0.199839064191    0.593576711370    0.007592154766
 O    0.172258695086    1.821749796147    0.003504026338
 C   -0.872946061785   -0.380116677904    0.013793352706
 N   -2.244019363554   -0.193785632591    0.013718167990
 C   -2.737542858065   -1.432388646636    0.003388068325
 H   -3.795040771333   -1.686535268468    0.000441423899
 H   -1.876931033813   -3.407382861732   -0.011313474500
 K    0.138582743620    3.321363417617   -0.001487626022
