17

 N   -1.750913300921   -2.441800809222   -0.002517446380
 C   -0.540725234077   -1.786594605546    0.001444177588
 N    0.692687180226   -2.385272300008    0.013482462493
 C    1.663110380282   -1.495096158397    0.001610005520
 N    1.460033542869   -0.133458024883   -0.005225154822
 H    2.263860668120    0.486502514872   -0.087213177244
 N    2.988565134519   -1.913770880077   -0.076737297715
 H    3.643101339851   -1.381967655677    0.490903479015
 H    3.067370221910   -2.914471024012    0.084846040274
 C    0.200759800552    0.552575678648    0.007728631855
 O    0.173179431447    1.780748763425    0.003640503427
 C   -0.872025325424   -0.421117710626    0.013929829795
 N   -2.243098627193   -0.234786665313    0.013854645079
 C   -2.736622121704   -1.473389679358    0.003524545414
 H   -3.794120034972   -1.727536301190    0.000577900988
 H   -1.876010297452   -3.448383894454   -0.011176997411
 K    0.135013353119    3.480310867758   -0.002016702581
