17

 N   -1.750452932741   -2.462301325584   -0.002449207836
 C   -0.540264865897   -1.807095121908    0.001512416132
 N    0.693147548406   -2.405772816370    0.013550701037
 C    1.663570748462   -1.515596674759    0.001678244064
 N    1.460493911049   -0.153958541245   -0.005156916278
 H    2.264321036300    0.466001998510   -0.087144938700
 N    2.989025502699   -1.934271396439   -0.076669059171
 H    3.643561708031   -1.402468172039    0.490971717559
 H    3.067830590090   -2.934971540374    0.084914278818
 C    0.201220168732    0.532075162286    0.007796870399
 O    0.173639799627    1.760248247063    0.003708741971
 C   -0.871564957244   -0.441618226988    0.013998068339
 N   -2.242638259013   -0.255287181675    0.013922883623
 C   -2.736161753524   -1.493890195720    0.003592783958
 H   -3.793659666792   -1.748036817552    0.000646139532
 H   -1.875549929272   -3.468884410816   -0.011108758867
 K    0.133228657868    3.559784592828   -0.002281240861
