17

 N   -1.712702741959   -4.143343667202    0.003146352815
 C   -0.502514675115   -3.488137463526    0.007107976783
 N    0.730897739188   -4.086815157988    0.019146261688
 C    1.701320939244   -3.196639016377    0.007273804715
 N    1.498244101831   -1.835000882863    0.000438644373
 H    2.302071227082   -1.215040343108   -0.081549378049
 N    3.026775693481   -3.615313738057   -0.071073498520
 H    3.681311898813   -3.083510513657    0.496567278210
 H    3.105580780872   -4.616013881992    0.090509839469
 C    0.238970359514   -1.148967179332    0.013392431050
 O    0.211389990409    0.079205905445    0.009304302622
 C   -0.833814766462   -2.122660568606    0.019593628990
 N   -2.204888068231   -1.936329523293    0.019518444274
 C   -2.698411562742   -3.174932537338    0.009188344609
 H   -3.755909476010   -3.429079159170    0.006241700183
 H   -1.837799738490   -5.149926752434   -0.005513198216
 K   -0.013116352699   10.076630048581   -0.023973379777
