17

 N   -1.749532196380   -2.503302358306   -0.002312730747
 C   -0.539344129536   -1.848096154630    0.001648893221
 N    0.694068284767   -2.446773849092    0.013687178126
 C    1.664491484823   -1.556597707481    0.001814721153
 N    1.461414647410   -0.194959573967   -0.005020439189
 H    2.265241772661    0.425000965788   -0.087008461611
 N    2.989946239060   -1.975272429161   -0.076532582082
 H    3.644482444392   -1.443469204761    0.491108194648
 H    3.068751326451   -2.975972573096    0.085050755907
 C    0.202140905093    0.491074129564    0.007933347488
 O    0.174560535988    1.719247214341    0.003845219060
 C   -0.870644220883   -0.482619259710    0.014134545428
 N   -2.241717522652   -0.296288214397    0.014059360712
 C   -2.735241017163   -1.534891228442    0.003729261047
 H   -3.792738930431   -1.789037850274    0.000782616621
 H   -1.874629192911   -3.509885443538   -0.010972281778
 K    0.129659267366    3.718732042968   -0.002810317420
