17

 N   -1.749071828200   -2.523802874667   -0.002244492202
 C   -0.538883761356   -1.868596670991    0.001717131766
 N    0.694528652947   -2.467274365453    0.013755416671
 C    1.664951853003   -1.577098223842    0.001882959698
 N    1.461875015590   -0.215460090328   -0.004952200644
 H    2.265702140841    0.404500449427   -0.086940223066
 N    2.990406607240   -1.995772945522   -0.076464343537
 H    3.644942812572   -1.463969721122    0.491176433193
 H    3.069211694631   -2.996473089457    0.085118994452
 C    0.202601273273    0.470573613203    0.008001586033
 O    0.175020904168    1.698746697980    0.003913457605
 C   -0.870183852703   -0.503119776071    0.014202783973
 N   -2.241257154472   -0.316788730758    0.014127599257
 C   -2.734780648983   -1.555391744803    0.003797499592
 H   -3.792278562251   -1.809538366635    0.000850855166
 H   -1.874168824731   -3.530385959899   -0.010904043233
 K    0.127874572115    3.798205768038   -0.003074855699
