17

 N   -1.748151091839   -2.564803907390   -0.002108015113
 C   -0.537963024995   -1.909597703714    0.001853608855
 N    0.695449389308   -2.508275398176    0.013891893760
 C    1.665872589364   -1.618099256565    0.002019436787
 N    1.462795751951   -0.256461123051   -0.004815723555
 H    2.266622877202    0.363499416704   -0.086803745977
 N    2.991327343601   -2.036773978245   -0.076327866448
 H    3.645863548933   -1.504970753845    0.491312910282
 H    3.070132430992   -3.037474122180    0.085255471541
 C    0.203522009634    0.429572580480    0.008138063122
 O    0.175941640529    1.657745665257    0.004049934694
 C   -0.869263116342   -0.544120808794    0.014339261062
 N   -2.240336418111   -0.357789763481    0.014264076346
 C   -2.733859912622   -1.596392777526    0.003933976681
 H   -3.791357825890   -1.850539399358    0.000987332255
 H   -1.873248088370   -3.571386992622   -0.010767566144
 K    0.124305181614    3.957153218179   -0.003603932258
