17

 N   -1.747690723659   -2.585304423751   -0.002039776569
 C   -0.537502656815   -1.930098220075    0.001921847399
 N    0.695909757488   -2.528775914537    0.013960132304
 C    1.666332957544   -1.638599772926    0.002087675331
 N    1.463256120131   -0.276961639412   -0.004747485011
 H    2.267083245382    0.342998900343   -0.086735507433
 N    2.991787711781   -2.057274494606   -0.076259627904
 H    3.646323917113   -1.525471270206    0.491381148826
 H    3.070592799172   -3.057974638541    0.085323710085
 C    0.203982377814    0.409072064119    0.008206301666
 O    0.176402008709    1.637245148896    0.004118173238
 C   -0.868802748162   -0.564621325155    0.014407499606
 N   -2.239876049931   -0.378290279842    0.014332314890
 C   -2.733399544442   -1.616893293887    0.004002215225
 H   -3.790897457710   -1.871039915719    0.001055570799
 H   -1.872787720190   -3.591887508983   -0.010699327600
 K    0.122520486363    4.036626943249   -0.003868470538
