17

 N   -1.747230355479   -2.605804940112   -0.001971538024
 C   -0.537042288635   -1.950598736436    0.001990085944
 N    0.696370125668   -2.549276430898    0.014028370849
 C    1.666793325724   -1.659100289287    0.002155913876
 N    1.463716488311   -0.297462155773   -0.004679246466
 H    2.267543613562    0.322498383982   -0.086667268888
 N    2.992248079961   -2.077775010967   -0.076191389359
 H    3.646784285293   -1.545971786567    0.491449387371
 H    3.071053167352   -3.078475154902    0.085391948630
 C    0.204442745994    0.388571547758    0.008274540211
 O    0.176862376889    1.616744632535    0.004186411783
 C   -0.868342379982   -0.585121841516    0.014475738151
 N   -2.239415681751   -0.398790796203    0.014400553435
 C   -2.732939176262   -1.637393810248    0.004070453770
 H   -3.790437089530   -1.891540432080    0.001123809344
 H   -1.872327352010   -3.612388025344   -0.010631089055
 K    0.120735791112    4.116100668319   -0.004133008817
