17

 N   -1.745388882758   -2.687807005557   -0.001698583846
 C   -0.535200815914   -2.032600801881    0.002263040122
 N    0.698211598389   -2.631278496343    0.014301325027
 C    1.668634798445   -1.741102354732    0.002428868054
 N    1.465557961032   -0.379464221218   -0.004406292288
 H    2.269385086283    0.240496318537   -0.086394314710
 N    2.994089552682   -2.159777076412   -0.075918435181
 H    3.648625758014   -1.627973852012    0.491722341549
 H    3.072894640073   -3.160477220347    0.085664902808
 C    0.206284218715    0.306569482313    0.008547494389
 O    0.178703849610    1.534742567090    0.004459365961
 C   -0.866500907261   -0.667123906961    0.014748692329
 N   -2.237574209030   -0.480792861648    0.014673507613
 C   -2.731097703541   -1.719395875693    0.004343407948
 H   -3.788595616809   -1.973542497525    0.001396763522
 H   -1.870485879289   -3.694390090789   -0.010358134877
 K    0.113597010109    4.433995568600   -0.005191161935
