17

 N   -1.743547410037   -2.769809071002   -0.001425629668
 C   -0.533359343193   -2.114602867326    0.002535994300
 N    0.700053071110   -2.713280561788    0.014574279205
 C    1.670476271166   -1.823104420177    0.002701822232
 N    1.467399433753   -0.461466286663   -0.004133338110
 H    2.271226559004    0.158494253092   -0.086121360532
 N    2.995931025403   -2.241779141857   -0.075645481003
 H    3.650467230735   -1.709975917457    0.491995295727
 H    3.074736112794   -3.242479285792    0.085937856986
 C    0.208125691436    0.224567416868    0.008820448567
 O    0.180545322331    1.452740501645    0.004732320139
 C   -0.864659434540   -0.749125972406    0.015021646507
 N   -2.235732736309   -0.562794927093    0.014946461791
 C   -2.729256230820   -1.801397941138    0.004616362126
 H   -3.786754144088   -2.055544562970    0.001669717700
 H   -1.868644406568   -3.776392156234   -0.010085180699
 K    0.106458229106    4.751890468880   -0.006249315053
