17

 N   -1.743087041857   -2.790309587363   -0.001357391124
 C   -0.532898975013   -2.135103383687    0.002604232844
 N    0.700513439290   -2.733781078149    0.014642517749
 C    1.670936639346   -1.843604936538    0.002770060776
 N    1.467859801933   -0.481966803024   -0.004065099566
 H    2.271686927184    0.137993736731   -0.086053121988
 N    2.996391393583   -2.262279658218   -0.075577242459
 H    3.650927598915   -1.730476433818    0.492063534271
 H    3.075196480974   -3.262979802153    0.086006095530
 C    0.208586059616    0.204066900507    0.008888687111
 O    0.181005690511    1.432239985284    0.004800558683
 C   -0.864199066360   -0.769626488767    0.015089885051
 N   -2.235272368129   -0.583295443454    0.015014700335
 C   -2.728795862640   -1.821898457499    0.004684600670
 H   -3.786293775908   -2.076045079331    0.001737956244
 H   -1.868184038388   -3.796892672595   -0.010016942155
 K    0.104673533855    4.831364193950   -0.006513853332
