17

 N   -1.741705937316   -2.851811136446   -0.001152675490
 C   -0.531517870472   -2.196604932770    0.002808948478
 N    0.701894543831   -2.795282627232    0.014847233383
 C    1.672317743887   -1.905106485621    0.002974776410
 N    1.469240906474   -0.543468352107   -0.003860383932
 H    2.273068031725    0.076492187648   -0.085848406354
 N    2.997772498124   -2.323781207301   -0.075372526825
 H    3.652308703456   -1.791977982901    0.492268249905
 H    3.076577585515   -3.324481351236    0.086210811164
 C    0.209967164157    0.142565351424    0.009093402745
 O    0.182386795052    1.370738436201    0.005005274317
 C   -0.862817961819   -0.831128037850    0.015294600685
 N   -2.233891263588   -0.644796992537    0.015219415969
 C   -2.727414758099   -1.883400006582    0.004889316304
 H   -3.784912671367   -2.137546628414    0.001942671878
 H   -1.866802933847   -3.858394221678   -0.009812226521
 K    0.099319448102    5.069785369161   -0.007307468171
