17

 N   -1.741245569136   -2.872311652808   -0.001084436945
 C   -0.531057502292   -2.217105449132    0.002877187023
 N    0.702354912011   -2.815783143594    0.014915471928
 C    1.672778112067   -1.925607001983    0.003043014955
 N    1.469701274654   -0.563968868469   -0.003792145387
 H    2.273528399905    0.055991671286   -0.085780167809
 N    2.998232866304   -2.344281723663   -0.075304288280
 H    3.652769071636   -1.812478499263    0.492336488450
 H    3.077037953695   -3.344981867598    0.086279049709
 C    0.210427532337    0.122064835062    0.009161641290
 O    0.182847163232    1.350237919839    0.005073512862
 C   -0.862357593639   -0.851628554212    0.015362839230
 N   -2.233430895408   -0.665297508899    0.015287654514
 C   -2.726954389919   -1.903900522944    0.004957554849
 H   -3.784452303187   -2.158047144776    0.002010910423
 H   -1.866342565667   -3.878894738040   -0.009743987976
 K    0.097534752851    5.149259094231   -0.007572006450
