17

 N   -1.739404096415   -2.954313718252   -0.000811482767
 C   -0.529216029571   -2.299107514576    0.003150141201
 N    0.704196384732   -2.897785209038    0.015188426106
 C    1.674619584788   -2.007609067427    0.003315969133
 N    1.471542747375   -0.645970933913   -0.003519191209
 H    2.275369872626   -0.026010394158   -0.085507213631
 N    3.000074339025   -2.426283789107   -0.075031334102
 H    3.654610544357   -1.894480564707    0.492609442628
 H    3.078879426416   -3.426983933042    0.086552003887
 C    0.212269005058    0.040062769618    0.009434595468
 O    0.184688635953    1.268235854395    0.005346467040
 C   -0.860516120918   -0.933630619656    0.015635793408
 N   -2.231589422687   -0.747299574343    0.015560608692
 C   -2.725112917198   -1.985902588388    0.005230509027
 H   -3.782610830466   -2.240049210220    0.002283864601
 H   -1.864501092946   -3.960896803484   -0.009471033798
 K    0.090395971848    5.467153994512   -0.008630159568
