17

 N   -1.738483360054   -2.995314750975   -0.000675005678
 C   -0.528295293210   -2.340108547299    0.003286618290
 N    0.705117121093   -2.938786241761    0.015324903195
 C    1.675540321149   -2.048610100150    0.003452446222
 N    1.472463483736   -0.686971966636   -0.003382714120
 H    2.276290608987   -0.067011426881   -0.085370736542
 N    3.000995075386   -2.467284821830   -0.074894857013
 H    3.655531280718   -1.935481597430    0.492745919717
 H    3.079800162777   -3.467984965765    0.086688480976
 C    0.213189741419   -0.000938263105    0.009571072557
 O    0.185609372314    1.227234821672    0.005482944129
 C   -0.859595384557   -0.974631652379    0.015772270497
 N   -2.230668686326   -0.788300607066    0.015697085781
 C   -2.724192180837   -2.026903621111    0.005366986116
 H   -3.781690094105   -2.281050242943    0.002420341690
 H   -1.863580356585   -4.001897836207   -0.009334556709
 K    0.086826581347    5.626101444652   -0.009159236127
