17

 N   -1.737562623693   -3.036315783697   -0.000538528589
 C   -0.527374556849   -2.381109580021    0.003423095379
 N    0.706037857454   -2.979787274483    0.015461380284
 C    1.676461057510   -2.089611132872    0.003588923311
 N    1.473384220097   -0.727972999358   -0.003246237031
 H    2.277211345348   -0.108012459603   -0.085234259453
 N    3.001915811747   -2.508285854552   -0.074758379924
 H    3.656452017079   -1.976482630152    0.492882396806
 H    3.080720899138   -3.508985998487    0.086824958065
 C    0.214110477780   -0.041939295827    0.009707549646
 O    0.186530108675    1.186233788950    0.005619421218
 C   -0.858674648196   -1.015632685101    0.015908747586
 N   -2.229747949965   -0.829301639788    0.015833562870
 C   -2.723271444476   -2.067904653833    0.005503463205
 H   -3.780769357744   -2.322051275665    0.002556818779
 H   -1.862659620224   -4.042898868929   -0.009198079620
 K    0.083257190845    5.785048894792   -0.009688312686
