17

 N   -1.735260782792   -3.138818365503   -0.000197335867
 C   -0.525072715948   -2.483612161827    0.003764288101
 N    0.708339698355   -3.082289856289    0.015802573006
 C    1.678762898411   -2.192113714678    0.003930116033
 N    1.475686060998   -0.830475581164   -0.002905044309
 H    2.279513186249   -0.210515041409   -0.084893066731
 N    3.004217652648   -2.610788436358   -0.074417187202
 H    3.658753857980   -2.078985211958    0.493223589528
 H    3.083022740039   -3.611488580293    0.087166150787
 C    0.216412318681   -0.144441877633    0.010048742368
 O    0.188831949576    1.083731207144    0.005960613940
 C   -0.856372807295   -1.118135266907    0.016249940308
 N   -2.227446109064   -0.931804221594    0.016174755592
 C   -2.720969603575   -2.170407235639    0.005844655927
 H   -3.778467516843   -2.424553857471    0.002898011501
 H   -1.860357779323   -4.145401450735   -0.008856886898
 K    0.074333714591    6.182417520143   -0.011011004083
