17

 N   -1.733419310071   -3.220820430948    0.000075618311
 C   -0.523231243227   -2.565614227272    0.004037242279
 N    0.710181171076   -3.164291921734    0.016075527184
 C    1.680604371132   -2.274115780123    0.004203070211
 N    1.477527533719   -0.912477646609   -0.002632090131
 H    2.281354658970   -0.292517106854   -0.084620112553
 N    3.006059125369   -2.692790501803   -0.074144233024
 H    3.660595330701   -2.160987277403    0.493496543706
 H    3.084864212760   -3.693490645738    0.087439104965
 C    0.218253791402   -0.226443943078    0.010321696546
 O    0.190673422297    1.001729141699    0.006233568118
 C   -0.854531334574   -1.200137332352    0.016522894486
 N   -2.225604636343   -1.013806287039    0.016447709770
 C   -2.719128130854   -2.252409301084    0.006117610105
 H   -3.776626044122   -2.506555922916    0.003170965679
 H   -1.858516306602   -4.227403516180   -0.008583932720
 K    0.067194933588    6.500312420424   -0.012069157201
