17

 N   -1.732958941891   -3.241320947309    0.000143856856
 C   -0.522770875047   -2.586114743633    0.004105480824
 N    0.710641539256   -3.184792438095    0.016143765729
 C    1.681064739312   -2.294616296484    0.004271308756
 N    1.477987901899   -0.932978162970   -0.002563851586
 H    2.281815027150   -0.313017623215   -0.084551874008
 N    3.006519493549   -2.713291018164   -0.074075994479
 H    3.661055698881   -2.181487793764    0.493564782251
 H    3.085324580940   -3.713991162099    0.087507343510
 C    0.218714159582   -0.246944459439    0.010389935091
 O    0.191133790477    0.981228625338    0.006301806663
 C   -0.854070966394   -1.220637848713    0.016591133031
 N   -2.225144268163   -1.034306803400    0.016515948315
 C   -2.718667762674   -2.272909817445    0.006185848650
 H   -3.776165675942   -2.527056439277    0.003239204224
 H   -1.858055938422   -4.247904032541   -0.008515694175
 K    0.065410238337    6.579786145494   -0.012333695481
