17

 N   -1.732038205530   -3.282321980032    0.000280333945
 C   -0.521850138686   -2.627115776356    0.004241957913
 N    0.711562275617   -3.225793470818    0.016280242818
 C    1.681985475673   -2.335617329207    0.004407785845
 N    1.478908638260   -0.973979195693   -0.002427374497
 H    2.282735763511   -0.354018655938   -0.084415396919
 N    3.007440229910   -2.754292050887   -0.073939517390
 H    3.661976435242   -2.222488826487    0.493701259340
 H    3.086245317301   -3.754992194822    0.087643820599
 C    0.219634895943   -0.287945492162    0.010526412180
 O    0.192054526838    0.940227592615    0.006438283752
 C   -0.853150230033   -1.261638881436    0.016727610120
 N   -2.224223531802   -1.075307836123    0.016652425404
 C   -2.717747026313   -2.313910850168    0.006322325739
 H   -3.775244939581   -2.568057472000    0.003375681313
 H   -1.857135202061   -4.288905065264   -0.008379217086
 K    0.061840847835    6.738733595634   -0.012862772039
