17

 N   -1.731577837350   -3.302822496393    0.000348572490
 C   -0.521389770506   -2.647616292717    0.004310196458
 N    0.712022643797   -3.246293987179    0.016348481363
 C    1.682445843853   -2.356117845568    0.004476024390
 N    1.479369006440   -0.994479712054   -0.002359135952
 H    2.283196131691   -0.374519172299   -0.084347158374
 N    3.007900598090   -2.774792567248   -0.073871278845
 H    3.662436803422   -2.242989342848    0.493769497885
 H    3.086705685481   -3.775492711183    0.087712059144
 C    0.220095264123   -0.308446008523    0.010594650725
 O    0.192514895018    0.919727076254    0.006506522297
 C   -0.852689861853   -1.282139397797    0.016795848665
 N   -2.223763163622   -1.095808352484    0.016720663949
 C   -2.717286658133   -2.334411366529    0.006390564284
 H   -3.774784571401   -2.588557988361    0.003443919858
 H   -1.856674833881   -4.309405581625   -0.008310978541
 K    0.060056152584    6.818207320704   -0.013127310319
