17

 N   -1.731117469170   -3.323323012754    0.000416811034
 C   -0.520929402326   -2.668116809078    0.004378435002
 N    0.712483011977   -3.266794503540    0.016416719907
 C    1.682906212033   -2.376618361929    0.004544262934
 N    1.479829374620   -1.014980228415   -0.002290897408
 H    2.283656499871   -0.395019688660   -0.084278919830
 N    3.008360966270   -2.795293083609   -0.073803040301
 H    3.662897171602   -2.263489859209    0.493837736429
 H    3.087166053661   -3.795993227544    0.087780297688
 C    0.220555632303   -0.328946524884    0.010662889269
 O    0.192975263198    0.899226559893    0.006574760841
 C   -0.852229493673   -1.302639914158    0.016864087209
 N   -2.223302795442   -1.116308868845    0.016788902493
 C   -2.716826289953   -2.354911882890    0.006458802828
 H   -3.774324203221   -2.609058504722    0.003512158402
 H   -1.856214465701   -4.329906097986   -0.008242739997
 K    0.058271457333    6.897681045774   -0.013391848598
