17

 N   -1.730196732809   -3.364324045477    0.000553288123
 C   -0.520008665965   -2.709117841801    0.004514912091
 N    0.713403748338   -3.307795536263    0.016553196996
 C    1.683826948394   -2.417619394652    0.004680740023
 N    1.480750110981   -1.055981261138   -0.002154420319
 H    2.284577236232   -0.436020721383   -0.084142442741
 N    3.009281702631   -2.836294116332   -0.073666563212
 H    3.663817907963   -2.304490891932    0.493974213518
 H    3.088086790022   -3.836994260267    0.087916774777
 C    0.221476368664   -0.369947557607    0.010799366358
 O    0.193895999559    0.858225527170    0.006711237930
 C   -0.851308757312   -1.343640946881    0.017000564298
 N   -2.222382059081   -1.157309901568    0.016925379582
 C   -2.715905553592   -2.395912915613    0.006595279917
 H   -3.773403466860   -2.650059537445    0.003648635491
 H   -1.855293729340   -4.370907130709   -0.008106262908
 K    0.054702066832    7.056628495915   -0.013920925157
