17

 N   -1.729736364629   -3.384824561838    0.000621526668
 C   -0.519548297785   -2.729618358162    0.004583150636
 N    0.713864116518   -3.328296052624    0.016621435541
 C    1.684287316574   -2.438119911013    0.004748978568
 N    1.481210479161   -1.076481777499   -0.002086181774
 H    2.285037604412   -0.456521237744   -0.084074204196
 N    3.009742070811   -2.856794632693   -0.073598324667
 H    3.664278276143   -2.324991408293    0.494042452063
 H    3.088547158202   -3.857494776628    0.087985013322
 C    0.221936736844   -0.390448073968    0.010867604903
 O    0.194356367739    0.837725010809    0.006779476475
 C   -0.850848389132   -1.364141463242    0.017068802843
 N   -2.221921690901   -1.177810417929    0.016993618127
 C   -2.715445185412   -2.416413431974    0.006663518462
 H   -3.772943098680   -2.670560053806    0.003716874036
 H   -1.854833361160   -4.391407647070   -0.008038024363
 K    0.052917371581    7.136102220985   -0.014185463437
