17

 N   -1.729275996449   -3.405325078199    0.000689765212
 C   -0.519087929605   -2.750118874523    0.004651389180
 N    0.714324484698   -3.348796568985    0.016689674085
 C    1.684747684754   -2.458620427374    0.004817217112
 N    1.481670847341   -1.096982293860   -0.002017943230
 H    2.285497972592   -0.477021754105   -0.084005965652
 N    3.010202438991   -2.877295149054   -0.073530086123
 H    3.664738644323   -2.345491924654    0.494110690607
 H    3.089007526382   -3.877995292989    0.088053251866
 C    0.222397105024   -0.410948590329    0.010935843447
 O    0.194816735919    0.817224494448    0.006847715019
 C   -0.850388020952   -1.384641979603    0.017137041387
 N   -2.221461322721   -1.198310934290    0.017061856671
 C   -2.714984817232   -2.436913948335    0.006731757006
 H   -3.772482730500   -2.691060570167    0.003785112580
 H   -1.854372992980   -4.411908163431   -0.007969785819
 K    0.051132676330    7.215575946055   -0.014450001716
