17

 N   -1.727894891908   -3.466826627283    0.000894480846
 C   -0.517706825064   -2.811620423607    0.004856104814
 N    0.715705589239   -3.410298118069    0.016894389719
 C    1.686128789295   -2.520121976458    0.005021932746
 N    1.483051951882   -1.158483842944   -0.001813227596
 H    2.286879077133   -0.538523303189   -0.083801250018
 N    3.011583543532   -2.938796698138   -0.073325370489
 H    3.666119748864   -2.406993473738    0.494315406241
 H    3.090388630923   -3.939496842073    0.088257967500
 C    0.223778209565   -0.472450139413    0.011140559081
 O    0.196197840460    0.755722945364    0.007052430653
 C   -0.849006916411   -1.446143528687    0.017341757021
 N   -2.220080218180   -1.259812483374    0.017266572305
 C   -2.713603712691   -2.498415497419    0.006936472640
 H   -3.771101625959   -2.752562119251    0.003989828214
 H   -1.852991888439   -4.473409712515   -0.007765070185
 K    0.045778590578    7.453997121265   -0.015243616555
