17

 N   -1.725593051007   -3.569329209089    0.001235673568
 C   -0.515404984163   -2.914123005413    0.005197297536
 N    0.718007430140   -3.512800699875    0.017235582441
 C    1.688430630196   -2.622624558264    0.005363125468
 N    1.485353792783   -1.260986424750   -0.001472034874
 H    2.289180918034   -0.641025884995   -0.083460057296
 N    3.013885384433   -3.041299279944   -0.072984177767
 H    3.668421589765   -2.509496055544    0.494656598963
 H    3.092690471824   -4.041999423879    0.088599160222
 C    0.226080050466   -0.574952721219    0.011481751803
 O    0.198499681361    0.653220363558    0.007393623375
 C   -0.846705075510   -1.548646110493    0.017682949743
 N   -2.217778377279   -1.362315065180    0.017607765027
 C   -2.711301871790   -2.600918079225    0.007277665362
 H   -3.768799785058   -2.855064701057    0.004331020936
 H   -1.850690047538   -4.575912294321   -0.007423877463
 K    0.036855114324    7.851365746616   -0.016566307952
