17

 N   -1.725132682826   -3.589829725450    0.001303912113
 C   -0.514944615982   -2.934623521774    0.005265536081
 N    0.718467798321   -3.533301216236    0.017303820986
 C    1.688890998377   -2.643125074625    0.005431364013
 N    1.485814160964   -1.281486941111   -0.001403796329
 H    2.289641286215   -0.661526401356   -0.083391818751
 N    3.014345752614   -3.061799796305   -0.072915939222
 H    3.668881957946   -2.529996571905    0.494724837508
 H    3.093150840005   -4.062499940240    0.088667398767
 C    0.226540418647   -0.595453237580    0.011549990348
 O    0.198960049542    0.632719847197    0.007461861920
 C   -0.846244707329   -1.569146626854    0.017751188288
 N   -2.217318009098   -1.382815581541    0.017676003572
 C   -2.710841503609   -2.621418595586    0.007345903907
 H   -3.768339416877   -2.875565217418    0.004399259481
 H   -1.850229679357   -4.596412810682   -0.007355638918
 K    0.035070419073    7.930839471686   -0.016830846232
