17

 N   -1.724211946466   -3.630830758172    0.001440389202
 C   -0.514023879622   -2.975624554496    0.005402013170
 N    0.719388534681   -3.574302248958    0.017440298075
 C    1.689811734737   -2.684126107347    0.005567841102
 N    1.486734897324   -1.322487973833   -0.001267319240
 H    2.290562022575   -0.702527434078   -0.083255341662
 N    3.015266488974   -3.102800829027   -0.072779462133
 H    3.669802694306   -2.570997604627    0.494861314597
 H    3.094071576365   -4.103500972962    0.088803875856
 C    0.227461155007   -0.636454270302    0.011686467437
 O    0.199880785902    0.591718814475    0.007598339009
 C   -0.845323970969   -1.610147659576    0.017887665377
 N   -2.216397272738   -1.423816614263    0.017812480661
 C   -2.709920767249   -2.662419628308    0.007482380996
 H   -3.767418680517   -2.916566250140    0.004535736570
 H   -1.849308942997   -4.637413843404   -0.007219161829
 K    0.031501028571    8.089786921827   -0.017359922790
