17

 N   -1.723751578286   -3.651331274534    0.001508627746
 C   -0.513563511442   -2.996125070858    0.005470251714
 N    0.719848902861   -3.594802765320    0.017508536619
 C    1.690272102917   -2.704626623709    0.005636079646
 N    1.487195265504   -1.342988490195   -0.001199080696
 H    2.291022390755   -0.723027950440   -0.083187103118
 N    3.015726857154   -3.123301345389   -0.072711223589
 H    3.670263062486   -2.591498120989    0.494929553141
 H    3.094531944545   -4.124001489324    0.088872114400
 C    0.227921523187   -0.656954786664    0.011754705981
 O    0.200341154082    0.571218298113    0.007666577553
 C   -0.844863602789   -1.630648175938    0.017955903921
 N   -2.215936904558   -1.444317130625    0.017880719205
 C   -2.709460399069   -2.682920144670    0.007550619540
 H   -3.766958312337   -2.937066766502    0.004603975114
 H   -1.848848574817   -4.657914359766   -0.007150923285
 K    0.029716333320    8.169260646897   -0.017624461070
