17

 N   -1.721910105565   -3.733333339978    0.001781581924
 C   -0.511722038721   -3.078127136302    0.005743205892
 N    0.721690375582   -3.676804830764    0.017781490797
 C    1.692113575638   -2.786628689153    0.005909033824
 N    1.489036738225   -1.424990555639   -0.000926126518
 H    2.292863863476   -0.805030015884   -0.082914148940
 N    3.017568329875   -3.205303410833   -0.072438269411
 H    3.672104535207   -2.673500186433    0.495202507319
 H    3.096373417266   -4.206003554768    0.089145068578
 C    0.229762995908   -0.738956852108    0.012027660159
 O    0.202182626803    0.489216232669    0.007939531731
 C   -0.843022130068   -1.712650241382    0.018228858099
 N   -2.214095431837   -1.526319196069    0.018153673383
 C   -2.707618926348   -2.764922210114    0.007823573718
 H   -3.765116839616   -3.019068831946    0.004876929292
 H   -1.847007102096   -4.739916425210   -0.006877969107
 K    0.022577552317    8.487155547177   -0.018682614188
