17

 N   -1.721449737384   -3.753833856340    0.001849820469
 C   -0.511261670540   -3.098627652664    0.005811444437
 N    0.722150743763   -3.697305347126    0.017849729342
 C    1.692573943819   -2.807129205515    0.005977272369
 N    1.489497106406   -1.445491072001   -0.000857887973
 H    2.293324231657   -0.825530532246   -0.082845910395
 N    3.018028698056   -3.225803927195   -0.072370030866
 H    3.672564903388   -2.694000702795    0.495270745864
 H    3.096833785447   -4.226504071130    0.089213307123
 C    0.230223364089   -0.759457368470    0.012095898704
 O    0.202642994984    0.468715716307    0.008007770276
 C   -0.842561761887   -1.733150757744    0.018297096644
 N   -2.213635063656   -1.546819712431    0.018221911928
 C   -2.707158558167   -2.785422726476    0.007891812263
 H   -3.764656471435   -3.039569348308    0.004945167837
 H   -1.846546733915   -4.760416941572   -0.006809730562
 K    0.020792857066    8.566629272248   -0.018947152467
