17

 N   -1.718227160122   -3.897337470868    0.002327490281
 C   -0.508039093278   -3.242131267192    0.006289114249
 N    0.725373321025   -3.840808961654    0.018327399154
 C    1.695796521081   -2.950632820043    0.006454942181
 N    1.492719683668   -1.588994686529   -0.000380218161
 H    2.296546808919   -0.969034146774   -0.082368240583
 N    3.021251275318   -3.369307541723   -0.071892361054
 H    3.675787480650   -2.837504317323    0.495748415676
 H    3.100056362709   -4.370007685658    0.089690976935
 C    0.233445941351   -0.902960982998    0.012573568516
 O    0.205865572246    0.325212101779    0.008485440088
 C   -0.839339184625   -1.876654372272    0.018774766456
 N   -2.210412486394   -1.690323326959    0.018699581740
 C   -2.703935980905   -2.928926341004    0.008369482075
 H   -3.761433894173   -3.183072962836    0.005422837649
 H   -1.843324156653   -4.903920556100   -0.006332060750
 K    0.008299990311    9.122945347739   -0.020798920424
