17

 N   -1.717766791942   -3.917837987229    0.002395728825
 C   -0.507578725098   -3.262631783553    0.006357352793
 N    0.725833689205   -3.861309478015    0.018395637698
 C    1.696256889261   -2.971133336404    0.006523180725
 N    1.493180051848   -1.609495202890   -0.000311979617
 H    2.297007177099   -0.989534663135   -0.082300002039
 N    3.021711643498   -3.389808058084   -0.071824122510
 H    3.676247848830   -2.858004833684    0.495816654220
 H    3.100516730889   -4.390508202019    0.089759215479
 C    0.233906309531   -0.923461499359    0.012641807060
 O    0.206325940426    0.304711585418    0.008553678632
 C   -0.838878816445   -1.897154888633    0.018843005000
 N   -2.209952118214   -1.710823843320    0.018767820284
 C   -2.703475612725   -2.949426857365    0.008437720619
 H   -3.760973525993   -3.203573479197    0.005491076193
 H   -1.842863788473   -4.924421072461   -0.006263822206
 K    0.006515295060    9.202419072809   -0.021063458703
