17

 N   -1.715464951041   -4.020340569035    0.002736921548
 C   -0.505276884197   -3.365134365359    0.006698545516
 N    0.728135530106   -3.963812059821    0.018736830421
 C    1.698558730162   -3.073635918210    0.006864373448
 N    1.495481892749   -1.711997784696    0.000029213106
 H    2.299309018000   -1.092037244941   -0.081958809316
 N    3.024013484399   -3.492310639890   -0.071482929787
 H    3.678549689731   -2.960507415490    0.496157846943
 H    3.102818571790   -4.493010783825    0.090100408202
 C    0.236208150432   -1.025964081165    0.012982999783
 O    0.208627781327    0.202209003612    0.008894871355
 C   -0.836576975544   -1.999657470439    0.019184197723
 N   -2.207650277313   -1.813326425126    0.019109013007
 C   -2.701173771824   -3.051929439171    0.008778913342
 H   -3.758671685092   -3.306076061003    0.005832268916
 H   -1.840561947572   -5.026923654267   -0.005922629483
 K   -0.002408181194    9.599787698160   -0.022386150100
