17

 N   -1.714544214680   -4.061341601758    0.002873398637
 C   -0.504356147836   -3.406135398082    0.006835022605
 N    0.729056266467   -4.004813092544    0.018873307510
 C    1.699479466523   -3.114636950933    0.007000850537
 N    1.496402629110   -1.752998817419    0.000165690195
 H    2.300229754361   -1.133038277664   -0.081822332227
 N    3.024934220760   -3.533311672613   -0.071346452698
 H    3.679470426092   -3.001508448213    0.496294324032
 H    3.103739308151   -4.534011816548    0.090236885291
 C    0.237128886793   -1.066965113888    0.013119476872
 O    0.209548517688    0.161207970889    0.009031348444
 C   -0.835656239183   -2.040658503162    0.019320674812
 N   -2.206729540952   -1.854327457849    0.019245490096
 C   -2.700253035463   -3.092930471894    0.008915390431
 H   -3.757750948731   -3.347077093726    0.005968746005
 H   -1.839641211211   -5.067924686990   -0.005786152394
 K   -0.005977571696    9.758735148300   -0.022915226659
