17

 N   -1.714083846500   -4.081842118119    0.002941637181
 C   -0.503895779656   -3.426635914443    0.006903261149
 N    0.729516634647   -4.025313608905    0.018941546054
 C    1.699939834703   -3.135137467294    0.007069089081
 N    1.496862997290   -1.773499333780    0.000233928739
 H    2.300690122541   -1.153538794025   -0.081754093683
 N    3.025394588940   -3.553812188974   -0.071278214154
 H    3.679930794272   -3.022008964574    0.496362562576
 H    3.104199676331   -4.554512332909    0.090305123835
 C    0.237589254973   -1.087465630249    0.013187715416
 O    0.210008885868    0.140707454528    0.009099586988
 C   -0.835195871003   -2.061159019523    0.019388913356
 N   -2.206269172772   -1.874827974210    0.019313728640
 C   -2.699792667283   -3.113430988255    0.008983628975
 H   -3.757290580551   -3.367577610087    0.006036984549
 H   -1.839180843031   -5.088425203351   -0.005717913850
 K   -0.007762266947    9.838208873370   -0.023179764939
