13

 N   -0.996247886126    1.115269508630    0.000204279987
 C    0.177491696957    1.842641700140   -0.000108199183
 H    0.059774836894    2.927960159184   -0.000224046742
 C   -1.042023859206   -0.277942283237   -0.000180774582
 O   -2.093612027762   -0.912045597078    0.000162592522
 N    0.218416681935   -0.861412339369    0.000236128740
 H    0.228232479058   -1.879697451235    0.000208824645
 C    1.479670971168   -0.225356852406    0.000253223576
 O    2.513363899236   -0.894620686822   -0.000492442088
 C    1.398192179408    1.235190208984   -0.000246673871
 H    2.321592317710    1.812250467850   -0.000587350648
 H   -1.899985062074    1.574923629990    0.000002628387
LI   -2.949970992155   -1.428426508728    0.000442212915
