13

 N   -0.940729933868    1.148746604091    0.000186152131
 C    0.233009649215    1.876118795601   -0.000126327039
 H    0.115292789152    2.961437254645   -0.000242174598
 C   -0.986505906948   -0.244465187776   -0.000198902438
 O   -2.038094075504   -0.878568501617    0.000144464666
 N    0.273934634193   -0.827935243908    0.000218000884
 H    0.283750431316   -1.846220355774    0.000190696789
 C    1.535188923426   -0.191879756945    0.000235095720
 O    2.568881851494   -0.861143591361   -0.000510569944
 C    1.453710131666    1.268667304445   -0.000264801727
 H    2.377110269968    1.845727563311   -0.000605478504
 H   -1.844467109816    1.608400725451   -0.000015499469
LI   -3.836447900729   -1.962968416082    0.000731667493
