13

 N   -0.935682847299    1.151789976405    0.000184504144
 C    0.238056735784    1.879162167915   -0.000127975026
 H    0.120339875721    2.964480626959   -0.000243822585
 C   -0.981458820379   -0.241421815462   -0.000200550425
 O   -2.033046988935   -0.875525129303    0.000142816679
 N    0.278981720762   -0.824891871594    0.000216352897
 H    0.288797517885   -1.843176983460    0.000189048802
 C    1.540236009995   -0.188836384631    0.000233447733
 O    2.573928938063   -0.858100219047   -0.000512217931
 C    1.458757218235    1.271710676759   -0.000266449714
 H    2.382157356537    1.848770935625   -0.000607126491
 H   -1.839420023247    1.611444097765   -0.000017147456
LI   -3.917036710599   -2.011563134932    0.000757981545
