13

 N   -0.925588674161    1.157876721035    0.000181208171
 C    0.248150908922    1.885248912545   -0.000131270999
 H    0.130434048859    2.970567371589   -0.000247118558
 C   -0.971364647241   -0.235335070832   -0.000203846398
 O   -2.022952815797   -0.869438384673    0.000139520706
 N    0.289075893900   -0.818805126964    0.000213056924
 H    0.298891691023   -1.837090238830    0.000185752829
 C    1.550330183133   -0.182749640001    0.000230151760
 O    2.584023111201   -0.852013474417   -0.000515513904
 C    1.468851391373    1.277797421389   -0.000269745687
 H    2.392251529675    1.854857680255   -0.000610422464
 H   -1.829325850109    1.617530842395   -0.000020443429
LI   -4.078214330340   -2.108752572633    0.000810609650
