13

 N   -0.920541587592    1.160920093349    0.000179560184
 C    0.253197995491    1.888292284859   -0.000132918986
 H    0.135481135428    2.973610743903   -0.000248766545
 C   -0.966317560672   -0.232291698518   -0.000205494385
 O   -2.017905729228   -0.866395012359    0.000137872719
 N    0.294122980469   -0.815761754650    0.000211408937
 H    0.303938777592   -1.834046866516    0.000184104842
 C    1.555377269702   -0.179706267687    0.000228503773
 O    2.589070197770   -0.848970102103   -0.000517161891
 C    1.473898477942    1.280840793703   -0.000271393674
 H    2.397298616244    1.857901052569   -0.000612070451
 H   -1.824278763540    1.620574214709   -0.000022091416
LI   -4.158803140210   -2.157347291483    0.000836923703
