13

 N   -0.915494501023    1.163963465664    0.000177912197
 C    0.258245082060    1.891335657174   -0.000134566973
 H    0.140528221997    2.976654116218   -0.000250414532
 C   -0.961270474103   -0.229248326203   -0.000207142372
 O   -2.012858642659   -0.863351640044    0.000136224732
 N    0.299170067038   -0.812718382335    0.000209760950
 H    0.308985864161   -1.831003494201    0.000182456855
 C    1.560424356271   -0.176662895372    0.000226855786
 O    2.594117284339   -0.845926729788   -0.000518809878
 C    1.478945564511    1.283884166018   -0.000273041661
 H    2.402345702813    1.860944424884   -0.000613718438
 H   -1.819231676971    1.623617587024   -0.000023739403
LI   -4.239391950081   -2.205942010333    0.000863237755
