13

 N   -0.900353241316    1.173093582608    0.000172968236
 C    0.273386341767    1.900465774118   -0.000139510934
 H    0.155669481704    2.985784233162   -0.000255358493
 C   -0.946129214396   -0.220118209259   -0.000212086333
 O   -1.997717382952   -0.854221523100    0.000131280771
 N    0.314311326745   -0.803588265391    0.000204816989
 H    0.324127123868   -1.821873377257    0.000177512894
 C    1.575565615978   -0.167532778428    0.000221911825
 O    2.609258544046   -0.836796612844   -0.000523753839
 C    1.494086824218    1.293014282962   -0.000277985622
 H    2.417486962520    1.870074541828   -0.000618662399
 H   -1.804090417264    1.632747703968   -0.000028683364
LI   -4.481158379692   -2.351726166884    0.000942179913
