13

 N   -0.895306154747    1.176136954923    0.000171320249
 C    0.278433428336    1.903509146433   -0.000141158921
 H    0.160716568273    2.988827605477   -0.000257006480
 C   -0.941082127827   -0.217074836944   -0.000213734320
 O   -1.992670296383   -0.851178150785    0.000129632784
 N    0.319358413314   -0.800544893076    0.000203169002
 H    0.329174210437   -1.818830004942    0.000175864907
 C    1.580612702547   -0.164489406113    0.000220263838
 O    2.614305630615   -0.833753240529   -0.000525401826
 C    1.499133910787    1.296057655277   -0.000279633609
 H    2.422534049089    1.873117914143   -0.000620310386
 H   -1.799043330695    1.635791076283   -0.000030331351
LI   -4.561747189562   -2.400320885735    0.000968493965
