13

 N   -0.875117808472    1.188310444181    0.000164728302
 C    0.298621774611    1.915682635691   -0.000147750868
 H    0.180904914548    3.001001094735   -0.000263598427
 C   -0.920893781552   -0.204901347686   -0.000220326267
 O   -1.972481950108   -0.839004661527    0.000123040837
 N    0.339546759589   -0.788371403818    0.000196577055
 H    0.349362556712   -1.806656515684    0.000169272960
 C    1.600801048822   -0.152315916855    0.000213671891
 O    2.634493976890   -0.821579751271   -0.000531993773
 C    1.519322257062    1.308231144535   -0.000286225556
 H    2.442722395364    1.885291403401   -0.000626902333
 H   -1.778854984420    1.647964565541   -0.000036923298
LI   -4.884102429044   -2.594699761136    0.001073750175
