13

 N   -0.870070721903    1.191353816496    0.000163080315
 C    0.303668861180    1.918726008006   -0.000149398855
 H    0.185952001117    3.004044467050   -0.000265246414
 C   -0.915846694983   -0.201857975371   -0.000221974254
 O   -1.967434863539   -0.835961289212    0.000121392850
 N    0.344593846158   -0.785328031503    0.000194929068
 H    0.354409643281   -1.803613143369    0.000167624973
 C    1.605848135391   -0.149272544540    0.000212023904
 O    2.639541063459   -0.818536378956   -0.000533641760
 C    1.524369343631    1.311274516850   -0.000287873543
 H    2.447769481933    1.888334775716   -0.000628550320
 H   -1.773807897851    1.651007937856   -0.000038571285
LI   -4.964691238914   -2.643294479986    0.001100064228
