13

 N   -0.854929462196    1.200483933440    0.000158136354
 C    0.318810120887    1.927856124950   -0.000154342816
 H    0.201093260824    3.013174583994   -0.000270190375
 C   -0.900705435276   -0.192727858427   -0.000226918215
 O   -1.952293603832   -0.826831172268    0.000116448889
 N    0.359735105865   -0.776197914559    0.000189985107
 H    0.369550902988   -1.794483026425    0.000162681012
 C    1.620989395098   -0.140142427596    0.000207079943
 O    2.654682323166   -0.809406262012   -0.000538585721
 C    1.539510603338    1.320404633794   -0.000292817504
 H    2.462910741640    1.897464892660   -0.000633494281
 H   -1.758666638144    1.660138054800   -0.000043515246
LI   -5.206457668525   -2.789078636537    0.001179006385
