13

 N   -0.849882375627    1.203527305755    0.000156488367
 C    0.323857207456    1.930899497265   -0.000155990803
 H    0.206140347393    3.016217956309   -0.000271838362
 C   -0.895658348707   -0.189684486112   -0.000228566202
 O   -1.947246517263   -0.823787799953    0.000114800902
 N    0.364782192434   -0.773154542244    0.000188337120
 H    0.374597989557   -1.791439654110    0.000161033025
 C    1.626036481667   -0.137099055281    0.000205431956
 O    2.659729409735   -0.806362889697   -0.000540233708
 C    1.544557689907    1.323448006109   -0.000294465491
 H    2.467957828209    1.900508264975   -0.000635142268
 H   -1.753619551575    1.663181427115   -0.000045163233
LI   -5.287046478396   -2.837673355387    0.001205320437
