13

 N   -0.834741115920    1.212657422698    0.000151544407
 C    0.338998467163    1.940029614208   -0.000160934763
 H    0.221281607100    3.025348073252   -0.000276782322
 C   -0.880517089000   -0.180554369169   -0.000233510162
 O   -1.932105257556   -0.814657683010    0.000109856942
 N    0.379923452141   -0.764024425301    0.000183393160
 H    0.389739249264   -1.782309537167    0.000156089065
 C    1.641177741374   -0.127968938338    0.000200487996
 O    2.674870669442   -0.797232772754   -0.000545177668
 C    1.559698949614    1.332578123052   -0.000299409451
 H    2.483099087916    1.909638381918   -0.000640086228
 H   -1.738478291868    1.672311544058   -0.000050107193
LI   -5.528812908007   -2.983457511938    0.001284262595
