13

 N   -0.819599856213    1.221787539642    0.000146600446
 C    0.354139726870    1.949159731152   -0.000165878724
 H    0.236422866807    3.034478190196   -0.000281726283
 C   -0.865375829293   -0.171424252225   -0.000238454123
 O   -1.916963997849   -0.805527566066    0.000104912981
 N    0.395064711848   -0.754894308357    0.000178449199
 H    0.404880508971   -1.773179420223    0.000151145104
 C    1.656319001081   -0.118838821394    0.000195544035
 O    2.690011929149   -0.788102655810   -0.000550121629
 C    1.574840209321    1.341708239996   -0.000304353412
 H    2.498240347623    1.918768498862   -0.000645030189
 H   -1.723337032161    1.681441661002   -0.000055051154
LI   -5.770579337618   -3.129241668489    0.001363204752
