13

 N   -0.814552769644    1.224830911957    0.000144952459
 C    0.359186813439    1.952203103467   -0.000167526711
 H    0.241469953376    3.037521562511   -0.000283374270
 C   -0.860328742724   -0.168380879910   -0.000240102110
 O   -1.911916911280   -0.802484193751    0.000103264994
 N    0.400111798417   -0.751850936042    0.000176801212
 H    0.409927595540   -1.770136047908    0.000149497117
 C    1.661366087650   -0.115795449079    0.000193896048
 O    2.695059015718   -0.785059283495   -0.000551769616
 C    1.579887295890    1.344751612311   -0.000306001399
 H    2.503287434192    1.921811871177   -0.000646678176
 H   -1.718289945592    1.684485033317   -0.000056699141
LI   -5.851168147488   -3.177836387340    0.001389518805
