13

 N   -0.804458596507    1.230917656586    0.000141656486
 C    0.369280986576    1.958289848096   -0.000170822684
 H    0.251564126513    3.043608307140   -0.000286670243
 C   -0.850234569587   -0.162294135281   -0.000243398083
 O   -1.901822738143   -0.796397449122    0.000099969021
 N    0.410205971554   -0.745764191413    0.000173505239
 H    0.420021768677   -1.764049303279    0.000146201144
 C    1.671460260787   -0.109708704450    0.000190600075
 O    2.705153188855   -0.778972538866   -0.000555065589
 C    1.589981469027    1.350838356940   -0.000309297372
 H    2.513381607329    1.927898615806   -0.000649974149
 H   -1.708195772455    1.690571777946   -0.000059995114
LI   -6.012345767229   -3.275025825040    0.001442146910
