13

 N   -0.794364423369    1.237004401216    0.000138360512
 C    0.379375159714    1.964376592726   -0.000174118658
 H    0.261658299651    3.049695051770   -0.000289966217
 C   -0.840140396449   -0.156207390651   -0.000246694057
 O   -1.891728565005   -0.790310704492    0.000096673047
 N    0.420300144692   -0.739677446783    0.000170209265
 H    0.430115941815   -1.757962558649    0.000142905170
 C    1.681554433925   -0.103621959820    0.000187304101
 O    2.715247361993   -0.772885794236   -0.000558361563
 C    1.600075642165    1.356925101570   -0.000312593346
 H    2.523475780467    1.933985360436   -0.000653270123
 H   -1.698101599317    1.696658522576   -0.000063291088
LI   -6.173523386970   -3.372215262741    0.001494775015
