13

 N   -0.784270250231    1.243091145845    0.000135064538
 C    0.389469332852    1.970463337355   -0.000177414632
 H    0.271752472789    3.055781796399   -0.000293262191
 C   -0.830046223311   -0.150120646022   -0.000249990031
 O   -1.881634391867   -0.784223959863    0.000093377073
 N    0.430394317830   -0.733590702154    0.000166913291
 H    0.440210114953   -1.751875814020    0.000139609196
 C    1.691648607063   -0.097535215191    0.000184008127
 O    2.725341535131   -0.766799049607   -0.000561657537
 C    1.610169815303    1.363011846199   -0.000315889320
 H    2.533569953605    1.940072105065   -0.000656566097
 H   -1.688007426179    1.702745267205   -0.000066587062
LI   -6.334701006710   -3.469404700442    0.001547403120
