13

 N   -0.774176077093    1.249177890474    0.000131768564
 C    0.399563505990    1.976550081984   -0.000180710606
 H    0.281846645927    3.061868541028   -0.000296558165
 C   -0.819952050173   -0.144033901393   -0.000253286005
 O   -1.871540218729   -0.778137215234    0.000090081099
 N    0.440488490968   -0.727503957525    0.000163617317
 H    0.450304288091   -1.745789069391    0.000136313222
 C    1.701742780201   -0.091448470562    0.000180712153
 O    2.735435708269   -0.760712304978   -0.000564953511
 C    1.620263988441    1.369098590828   -0.000319185294
 H    2.543664126743    1.946158849694   -0.000659862071
 H   -1.677913253041    1.708832011834   -0.000069883036
LI   -6.495878626451   -3.566594138142    0.001600031225
