13

 N   -0.748940644248    1.264394752048    0.000123528630
 C    0.424798938835    1.991766943558   -0.000188950540
 H    0.307082078772    3.077085402602   -0.000304798099
 C   -0.794716617328   -0.128817039819   -0.000261525939
 O   -1.846304785884   -0.762920353660    0.000081841165
 N    0.465723923813   -0.712287095951    0.000155377383
 H    0.475539720936   -1.730572207817    0.000128073288
 C    1.726978213046   -0.076231608988    0.000172472219
 O    2.760671141114   -0.745495443404   -0.000573193445
 C    1.645499421286    1.384315452402   -0.000327425228
 H    2.568899559588    1.961375711268   -0.000668102005
 H   -1.652677820196    1.724048873408   -0.000078122970
LI   -6.898822675803   -3.809567732394    0.001731601487
