13

 N   -0.723705211404    1.279611613621    0.000115288696
 C    0.450034371679    2.006983805131   -0.000197190474
 H    0.332317511616    3.092302264175   -0.000313038033
 C   -0.769481184484   -0.113600178246   -0.000269765873
 O   -1.821069353040   -0.747703492087    0.000073601231
 N    0.490959356657   -0.697070234378    0.000147137449
 H    0.500775153780   -1.715355346244    0.000119833354
 C    1.752213645890   -0.061014747415    0.000164232285
 O    2.785906573958   -0.730278581831   -0.000581433379
 C    1.670734854130    1.399532313975   -0.000335665162
 H    2.594134992432    1.976592572841   -0.000676341939
 H   -1.627442387352    1.739265734981   -0.000086362904
LI   -7.301766725155   -4.052541326646    0.001863171750
