13

 N   -0.708563951697    1.288741730565    0.000110344735
 C    0.465175631386    2.016113922075   -0.000202134435
 H    0.347458771323    3.101432381119   -0.000317981994
 C   -0.754339924777   -0.104470061302   -0.000274709834
 O   -1.805928093333   -0.738573375143    0.000068657270
 N    0.506100616364   -0.687940117434    0.000142193488
 H    0.515916413487   -1.706225229300    0.000114889393
 C    1.767354905597   -0.051884630471    0.000159288324
 O    2.801047833665   -0.721148464887   -0.000586377340
 C    1.685876113837    1.408662430919   -0.000340609123
 H    2.609276252139    1.985722689785   -0.000681285900
 H   -1.612301127645    1.748395851925   -0.000091306865
LI   -7.543533154766   -4.198325483197    0.001942113907
