13

 N   -0.703516865128    1.291785102879    0.000108696748
 C    0.470222717955    2.019157294389   -0.000203782422
 H    0.352505857892    3.104475753433   -0.000319629981
 C   -0.749292838208   -0.101426688988   -0.000276357821
 O   -1.800881006764   -0.735530002829    0.000067009283
 N    0.511147702933   -0.684896745120    0.000140545501
 H    0.520963500056   -1.703181856986    0.000113241406
 C    1.772401992166   -0.048841258157    0.000157640337
 O    2.806094920234   -0.718105092573   -0.000588025327
 C    1.690923200406    1.411705803233   -0.000342257110
 H    2.614323338708    1.988766062099   -0.000682933887
 H   -1.607254041076    1.751439224239   -0.000092954852
LI   -7.624121964636   -4.246920202047    0.001968427960
