13

 N   -0.688375605421    1.300915219823    0.000103752787
 C    0.485363977662    2.028287411333   -0.000208726383
 H    0.367647117599    3.113605870377   -0.000324573942
 C   -0.734151578501   -0.092296572044   -0.000281301782
 O   -1.785739747057   -0.726399885885    0.000062065322
 N    0.526288962640   -0.675766628176    0.000135601540
 H    0.536104759763   -1.694051740042    0.000108297445
 C    1.787543251873   -0.039711141213    0.000152696376
 O    2.821236179941   -0.708974975629   -0.000592969288
 C    1.706064460113    1.420835920177   -0.000347201071
 H    2.629464598415    1.997896179043   -0.000687877848
 H   -1.592112781369    1.760569341183   -0.000097898813
LI   -7.865888394248   -4.392704358598    0.002047370117
