13

 N   -0.642951826301    1.328305570655    0.000088920906
 C    0.530787756782    2.055677762165   -0.000223558264
 H    0.413070896719    3.140996221209   -0.000339405823
 C   -0.688727799381   -0.064906221212   -0.000296133663
 O   -1.740315967937   -0.699009535053    0.000047233441
 N    0.571712741760   -0.648376277344    0.000120769659
 H    0.581528538883   -1.666661389210    0.000093465564
 C    1.832967030993   -0.012320790381    0.000137864495
 O    2.866659959061   -0.681584624797   -0.000607801169
 C    1.751488239233    1.448226271009   -0.000362032952
 H    2.674888377535    2.025286529875   -0.000702709729
 H   -1.546689002249    1.787959692015   -0.000112730694
LI   -8.591187683081   -4.830056828251    0.002284196589
