13

 N   -0.622763480025    1.340479059914    0.000082328958
 C    0.550976103058    2.067851251424   -0.000230150212
 H    0.433259242995    3.153169710468   -0.000345997771
 C   -0.668539453105   -0.052732731953   -0.000302725611
 O   -1.720127621661   -0.686836045794    0.000040641493
 N    0.591901088036   -0.636202788085    0.000114177711
 H    0.601716885159   -1.654487899951    0.000086873616
 C    1.853155377269   -0.000147301122    0.000131272547
 O    2.886848305337   -0.669411135538   -0.000614393117
 C    1.771676585509    1.460399760268   -0.000368624900
 H    2.695076723811    2.037460019134   -0.000709301677
 H   -1.526500655973    1.800133181274   -0.000119322642
LI   -8.913542922562   -5.024435703652    0.002389452799
