13

 N   -0.612669306888    1.346565804543    0.000079032984
 C    0.561070276195    2.073937996053   -0.000233446186
 H    0.443353416132    3.159256455097   -0.000349293745
 C   -0.658445279968   -0.046645987324   -0.000306021585
 O   -1.710033448524   -0.680749301165    0.000037345519
 N    0.601995261173   -0.630116043456    0.000110881737
 H    0.611811058296   -1.648401155322    0.000083577642
 C    1.863249550406    0.005939443507    0.000127976573
 O    2.896942478474   -0.663324390909   -0.000617689091
 C    1.781770758646    1.466486504897   -0.000371920874
 H    2.705170896948    2.043546763763   -0.000712597651
 H   -1.516406482836    1.806219925903   -0.000122618616
LI   -9.074720542303   -5.121625141353    0.002442080904
