13

 N   -0.607622220319    1.349609176858    0.000077384997
 C    0.566117362764    2.076981368368   -0.000235094173
 H    0.448400502701    3.162299827412   -0.000350941732
 C   -0.653398193399   -0.043602615009   -0.000307669572
 O   -1.704986361955   -0.677705928850    0.000035697532
 N    0.607042347742   -0.627072671141    0.000109233750
 H    0.616858144865   -1.645357783007    0.000081929655
 C    1.868296636975    0.008982815822    0.000126328586
 O    2.901989565043   -0.660281018594   -0.000619337078
 C    1.786817845215    1.469529877212   -0.000373568861
 H    2.710217983517    2.046590136078   -0.000714245638
 H   -1.511359396267    1.809263298218   -0.000124266603
LI   -9.155309352174   -5.170219860203    0.002468394957
