13

 N   -0.592480960612    1.358739293802    0.000072441037
 C    0.581258622471    2.086111485312   -0.000240038133
 H    0.463541762408    3.171429944356   -0.000355885692
 C   -0.638256933692   -0.034472498065   -0.000312613532
 O   -1.689845102248   -0.668575811906    0.000030753572
 N    0.622183607449   -0.617942554197    0.000104289790
 H    0.631999404572   -1.636227666063    0.000076985695
 C    1.883437896682    0.018112932766    0.000121384626
 O    2.917130824750   -0.651150901650   -0.000624281038
 C    1.801959104922    1.478659994156   -0.000378512821
 H    2.725359243224    2.055720253022   -0.000719189598
 H   -1.496218136560    1.818393415162   -0.000129210563
LI   -9.397075781785   -5.316004016754    0.002547337114
