13

 N   -0.587433874043    1.361782666116    0.000070793050
 C    0.586305709040    2.089154857626   -0.000241686120
 H    0.468588848977    3.174473316670   -0.000357533679
 C   -0.633209847123   -0.031429125751   -0.000314261519
 O   -1.684798015679   -0.665532439592    0.000029105585
 N    0.627230694018   -0.614899181883    0.000102641803
 H    0.637046491141   -1.633184293749    0.000075337708
 C    1.888484983251    0.021156305080    0.000119736639
 O    2.922177911319   -0.648107529336   -0.000625929025
 C    1.807006191491    1.481703366470   -0.000380160808
 H    2.730406329793    2.058763625336   -0.000720837585
 H   -1.491171049991    1.821436787476   -0.000130858550
LI   -9.477664591655   -5.364598735604    0.002573651167
