13

 N   -0.582386787474    1.364826038431    0.000069145063
 C    0.591352795609    2.092198229941   -0.000243334107
 H    0.473635935546    3.177516688985   -0.000359181666
 C   -0.628162760554   -0.028385753436   -0.000315909506
 O   -1.679750929110   -0.662489067277    0.000027457598
 N    0.632277780587   -0.611855809568    0.000100993816
 H    0.642093577710   -1.630140921434    0.000073689721
 C    1.893532069820    0.024199677395    0.000118088652
 O    2.927224997888   -0.645064157021   -0.000627577012
 C    1.812053278060    1.484746738785   -0.000381808795
 H    2.735453416362    2.061806997651   -0.000722485572
 H   -1.486123963422    1.824480159791   -0.000132506537
LI   -9.558253401525   -5.413193454455    0.002599965219
