13

 N   -0.572292614336    1.370912783060    0.000065849089
 C    0.601446968747    2.098284974570   -0.000246630081
 H    0.483730108684    3.183603433614   -0.000362477640
 C   -0.618068587416   -0.022299008807   -0.000319205480
 O   -1.669656755972   -0.656402322648    0.000024161624
 N    0.642371953725   -0.605769064939    0.000097697842
 H    0.652187750848   -1.624054176805    0.000070393747
 C    1.903626242958    0.030286422024    0.000114792678
 O    2.937319171026   -0.638977412392   -0.000630872986
 C    1.822147451198    1.490833483414   -0.000385104769
 H    2.745547589500    2.067893742280   -0.000725781546
 H   -1.476029790284    1.830566904420   -0.000135802511
LI   -9.719431021266   -5.510382892155    0.002652593324
