12

 C   -1.671217359408    1.276715798056    0.000000000000
 C   -0.558875359408    0.257237798056    0.000000000000
 O   -1.063206359408   -1.009215201944    0.000000000000
 C   -0.048740359408   -2.042954201944    0.000000000000
 O    0.638764640592    0.501730798056    0.000000000000
 H   -1.238647359408    2.283725798056    0.000000000000
 H   -2.303554359408    1.134143798056    0.888615000000
 H   -2.303554359408    1.134143798056   -0.888615000000
 H   -0.602837359408   -2.988078201944    0.000000000000
 H    0.581054640592   -1.956655201944    0.896190000000
 H    0.581054640592   -1.956655201944   -0.896190000000
NA    1.716535584740    0.721753051361    0.000000000000
