12

 C   -3.737395782554    0.854914454405    0.000000000000
 C   -2.625053782554   -0.164563545595    0.000000000000
 O   -3.129384782554   -1.431016545595    0.000000000000
 C   -2.114918782554   -2.464755545595    0.000000000000
 O   -1.427413782554    0.079929454405    0.000000000000
 H   -3.304825782554    1.861924454405    0.000000000000
 H   -4.369732782554    0.712342454405    0.888615000000
 H   -4.369732782554    0.712342454405   -0.888615000000
 H   -2.669015782554   -3.409879545595    0.000000000000
 H   -1.485123782554   -2.378456545595    0.896190000000
 H   -1.485123782554   -2.378456545595   -0.896190000000
NA    8.370503891523    2.080131757174    0.000000000000
