12

 C   -1.880156750513    1.234061729597    0.000000000000
 C   -0.767814750513    0.214583729597    0.000000000000
 O   -1.272145750513   -1.051869270403    0.000000000000
 C   -0.257679750513   -2.085608270403    0.000000000000
 O    0.429825249487    0.459076729597    0.000000000000
 H   -1.447586750513    2.241071729597    0.000000000000
 H   -2.512493750513    1.091489729597    0.888615000000
 H   -2.512493750513    1.091489729597   -0.888615000000
 H   -0.811776750513   -3.030732270403    0.000000000000
 H    0.372115249487   -1.999309270403    0.896190000000
 H    0.372115249487   -1.999309270403   -0.896190000000
NA    2.389408784302    0.859117190151    0.000000000000
