12

 C   -1.903372238414    1.229322388657    0.000000000000
 C   -0.791030238414    0.209844388657    0.000000000000
 O   -1.295361238414   -1.056608611343    0.000000000000
 C   -0.280895238414   -2.090347611343    0.000000000000
 O    0.406609761586    0.454337388657    0.000000000000
 H   -1.470802238414    2.236332388657    0.000000000000
 H   -2.535709238414    1.086750388657    0.888615000000
 H   -2.535709238414    1.086750388657   -0.888615000000
 H   -0.834992238414   -3.035471611343    0.000000000000
 H    0.348899761586   -2.004048611343    0.896190000000
 H    0.348899761586   -2.004048611343   -0.896190000000
NA    2.464172473143    0.874379872238    0.000000000000
