12

 C   -1.996234190016    1.210365024897    0.000000000000
 C   -0.883892190016    0.190887024897    0.000000000000
 O   -1.388223190016   -1.075565975103    0.000000000000
 C   -0.373757190016   -2.109304975103    0.000000000000
 O    0.313747809984    0.435380024897    0.000000000000
 H   -1.563664190016    2.217375024897    0.000000000000
 H   -2.628571190016    1.067793024897    0.888615000000
 H   -2.628571190016    1.067793024897   -0.888615000000
 H   -0.927854190016   -3.054428975103    0.000000000000
 H    0.256037809984   -2.023005975103    0.896190000000
 H    0.256037809984   -2.023005975103   -0.896190000000
NA    2.763227228504    0.935430600590    0.000000000000
