12

 C   -2.367681996424    1.134535569859    0.000000000000
 C   -1.255339996424    0.115057569859    0.000000000000
 O   -1.759670996424   -1.151395430141    0.000000000000
 C   -0.745204996424   -2.185134430141    0.000000000000
 O   -0.057699996424    0.359550569859    0.000000000000
 H   -1.935111996424    2.141545569859    0.000000000000
 H   -3.000018996424    0.991963569859    0.888615000000
 H   -3.000018996424    0.991963569859   -0.888615000000
 H   -1.299301996424   -3.130258430141    0.000000000000
 H   -0.115409996424   -2.098835430141    0.896190000000
 H   -0.115409996424   -2.098835430141   -0.896190000000
NA    3.959446249948    1.179633513994    0.000000000000
