12

 C   -2.414112972225    1.125056887979    0.000000000000
 C   -1.301770972225    0.105578887979    0.000000000000
 O   -1.806101972225   -1.160874112021    0.000000000000
 C   -0.791635972225   -2.194613112021    0.000000000000
 O   -0.104130972225    0.350071887979    0.000000000000
 H   -1.981542972225    2.132066887979    0.000000000000
 H   -3.046449972225    0.982484887979    0.888615000000
 H   -3.046449972225    0.982484887979   -0.888615000000
 H   -1.345732972225   -3.139737112021    0.000000000000
 H   -0.161840972225   -2.108314112021    0.896190000000
 H   -0.161840972225   -2.108314112021   -0.896190000000
NA    4.108973627628    1.210158878170    0.000000000000
