12

 C   -2.646267851230    1.077663478580    0.000000000000
 C   -1.533925851230    0.058185478580    0.000000000000
 O   -2.038256851230   -1.208267521420    0.000000000000
 C   -1.023790851230   -2.242006521420    0.000000000000
 O   -0.336285851230    0.302678478580    0.000000000000
 H   -2.213697851230    2.084673478580    0.000000000000
 H   -3.278604851230    0.935091478580    0.888615000000
 H   -3.278604851230    0.935091478580   -0.888615000000
 H   -1.577887851230   -3.187130521420    0.000000000000
 H   -0.393995851230   -2.155707521420    0.896190000000
 H   -0.393995851230   -2.155707521420   -0.896190000000
NA    4.856610516031    1.362785699048    0.000000000000
