12

 C   -2.692698827031    1.068184796700    0.000000000000
 C   -1.580356827031    0.048706796700    0.000000000000
 O   -2.084687827031   -1.217746203300    0.000000000000
 C   -1.070221827031   -2.251485203300    0.000000000000
 O   -0.382716827031    0.293199796700    0.000000000000
 H   -2.260128827031    2.075194796700    0.000000000000
 H   -3.325035827031    0.925612796700    0.888615000000
 H   -3.325035827031    0.925612796700   -0.888615000000
 H   -1.624318827031   -3.196609203300    0.000000000000
 H   -0.440426827031   -2.165186203300    0.896190000000
 H   -0.440426827031   -2.165186203300   -0.896190000000
NA    5.006137893711    1.393311063223    0.000000000000
