12

 C   -2.739129802832    1.058706114821    0.000000000000
 C   -1.626787802832    0.039228114821    0.000000000000
 O   -2.131118802832   -1.227224885179    0.000000000000
 C   -1.116652802832   -2.260963885179    0.000000000000
 O   -0.429147802832    0.283721114821    0.000000000000
 H   -2.306559802832    2.065716114821    0.000000000000
 H   -3.371466802832    0.916134114821    0.888615000000
 H   -3.371466802832    0.916134114821   -0.888615000000
 H   -1.670749802832   -3.206087885179    0.000000000000
 H   -0.486857802832   -2.174664885179    0.896190000000
 H   -0.486857802832   -2.174664885179   -0.896190000000
NA    5.155665271392    1.423836427399    0.000000000000
