12

 C   -2.762345290733    1.053966773881    0.000000000000
 C   -1.650003290733    0.034488773881    0.000000000000
 O   -2.154334290733   -1.231964226119    0.000000000000
 C   -1.139868290733   -2.265703226119    0.000000000000
 O   -0.452363290733    0.278981773881    0.000000000000
 H   -2.329775290733    2.060976773881    0.000000000000
 H   -3.394682290733    0.911394773881    0.888615000000
 H   -3.394682290733    0.911394773881   -0.888615000000
 H   -1.693965290733   -3.210827226119    0.000000000000
 H   -0.510073290733   -2.179404226119    0.896190000000
 H   -0.510073290733   -2.179404226119   -0.896190000000
NA    5.230428960232    1.439099109487    0.000000000000
