12

 C   -2.831991754434    1.039748751061    0.000000000000
 C   -1.719649754434    0.020270751061    0.000000000000
 O   -2.223980754434   -1.246182248939    0.000000000000
 C   -1.209514754434   -2.279921248939    0.000000000000
 O   -0.522009754434    0.264763751061    0.000000000000
 H   -2.399421754434    2.046758751061    0.000000000000
 H   -3.464328754434    0.897176751061    0.888615000000
 H   -3.464328754434    0.897176751061   -0.888615000000
 H   -1.763611754434   -3.225045248939    0.000000000000
 H   -0.579719754434   -2.193622248939    0.896190000000
 H   -0.579719754434   -2.193622248939   -0.896190000000
NA    5.454720026753    1.484887155750    0.000000000000
