12

 C   -2.855207242335    1.035009410121    0.000000000000
 C   -1.742865242335    0.015531410121    0.000000000000
 O   -2.247196242335   -1.250921589879    0.000000000000
 C   -1.232730242335   -2.284660589879    0.000000000000
 O   -0.545225242335    0.260024410121    0.000000000000
 H   -2.422637242335    2.042019410121    0.000000000000
 H   -3.487544242335    0.892437410121    0.888615000000
 H   -3.487544242335    0.892437410121   -0.888615000000
 H   -1.786827242335   -3.229784589879    0.000000000000
 H   -0.602935242335   -2.198361589879    0.896190000000
 H   -0.602935242335   -2.198361589879   -0.896190000000
NA    5.529483715593    1.500149837838    0.000000000000
