12

 C   -2.948069193937    1.016052046361    0.000000000000
 C   -1.835727193937   -0.003425953639    0.000000000000
 O   -2.340058193937   -1.269878953639    0.000000000000
 C   -1.325592193937   -2.303617953639    0.000000000000
 O   -0.638087193937    0.241067046361    0.000000000000
 H   -2.515499193937    2.023062046361    0.000000000000
 H   -3.580406193937    0.873480046361    0.888615000000
 H   -3.580406193937    0.873480046361   -0.888615000000
 H   -1.879689193937   -3.248741953639    0.000000000000
 H   -0.695797193937   -2.217318953639    0.896190000000
 H   -0.695797193937   -2.217318953639   -0.896190000000
NA    5.828538470954    1.561200566189    0.000000000000
