12

 C   -2.971284681837    1.011312705422    0.000000000000
 C   -1.858942681837   -0.008165294578    0.000000000000
 O   -2.363273681837   -1.274618294578    0.000000000000
 C   -1.348807681837   -2.308357294578    0.000000000000
 O   -0.661302681837    0.236327705422    0.000000000000
 H   -2.538714681837    2.018322705422    0.000000000000
 H   -3.603621681837    0.868740705422    0.888615000000
 H   -3.603621681837    0.868740705422   -0.888615000000
 H   -1.902904681837   -3.253481294578    0.000000000000
 H   -0.719012681837   -2.222058294578    0.896190000000
 H   -0.719012681837   -2.222058294578   -0.896190000000
NA    5.903302159795    1.576463248277    0.000000000000
