12

 C   -3.040931145539    0.997094682602    0.000000000000
 C   -1.928589145539   -0.022383317398    0.000000000000
 O   -2.432920145539   -1.288836317398    0.000000000000
 C   -1.418454145539   -2.322575317398    0.000000000000
 O   -0.730949145539    0.222109682602    0.000000000000
 H   -2.608361145539    2.004104682602    0.000000000000
 H   -3.673268145539    0.854522682602    0.888615000000
 H   -3.673268145539    0.854522682602   -0.888615000000
 H   -1.972551145539   -3.267699317398    0.000000000000
 H   -0.788659145539   -2.236276317398    0.896190000000
 H   -0.788659145539   -2.236276317398   -0.896190000000
NA    6.127593226315    1.622251294540    0.000000000000
