12

 C   -3.064146633439    0.992355341662    0.000000000000
 C   -1.951804633439   -0.027122658338    0.000000000000
 O   -2.456135633439   -1.293575658338    0.000000000000
 C   -1.441669633439   -2.327314658338    0.000000000000
 O   -0.754164633439    0.217370341662    0.000000000000
 H   -2.631576633439    1.999365341662    0.000000000000
 H   -3.696483633439    0.849783341662    0.888615000000
 H   -3.696483633439    0.849783341662   -0.888615000000
 H   -1.995766633439   -3.272438658338    0.000000000000
 H   -0.811874633439   -2.241015658338    0.896190000000
 H   -0.811874633439   -2.241015658338   -0.896190000000
NA    6.202356915156    1.637513976628    0.000000000000
