12

 C   -3.180224072942    0.968658636962    0.000000000000
 C   -2.067882072942   -0.050819363038    0.000000000000
 O   -2.572213072942   -1.317272363038    0.000000000000
 C   -1.557747072942   -2.351011363038    0.000000000000
 O   -0.870242072942    0.193673636962    0.000000000000
 H   -2.747654072942    1.975668636962    0.000000000000
 H   -3.812561072942    0.826086636962    0.888615000000
 H   -3.812561072942    0.826086636962   -0.888615000000
 H   -2.111844072942   -3.296135363038    0.000000000000
 H   -0.927952072942   -2.264712363038    0.896190000000
 H   -0.927952072942   -2.264712363038   -0.896190000000
NA    6.576175359357    1.713827387067    0.000000000000
