12

 C   -3.203439560842    0.963919296023    0.000000000000
 C   -2.091097560842   -0.055558703977    0.000000000000
 O   -2.595428560842   -1.322011703977    0.000000000000
 C   -1.580962560842   -2.355750703977    0.000000000000
 O   -0.893457560842    0.188934296023    0.000000000000
 H   -2.770869560842    1.970929296023    0.000000000000
 H   -3.835776560842    0.821347296023    0.888615000000
 H   -3.835776560842    0.821347296023   -0.888615000000
 H   -2.135059560842   -3.300874703977    0.000000000000
 H   -0.951167560842   -2.269451703977    0.896190000000
 H   -0.951167560842   -2.269451703977   -0.896190000000
NA    6.650939048197    1.729090069155    0.000000000000
