12

 C   -3.226655048743    0.959179955083    0.000000000000
 C   -2.114313048743   -0.060298044917    0.000000000000
 O   -2.618644048743   -1.326751044917    0.000000000000
 C   -1.604178048743   -2.360490044917    0.000000000000
 O   -0.916673048743    0.184194955083    0.000000000000
 H   -2.794085048743    1.966189955083    0.000000000000
 H   -3.858992048743    0.816607955083    0.888615000000
 H   -3.858992048743    0.816607955083   -0.888615000000
 H   -2.158275048743   -3.305614044917    0.000000000000
 H   -0.974383048743   -2.274191044917    0.896190000000
 H   -0.974383048743   -2.274191044917   -0.896190000000
NA    6.725702737037    1.744352751242    0.000000000000
