12

 C   -3.249870536643    0.954440614143    0.000000000000
 C   -2.137528536643   -0.065037385857    0.000000000000
 O   -2.641859536643   -1.331490385857    0.000000000000
 C   -1.627393536643   -2.365229385857    0.000000000000
 O   -0.939888536643    0.179455614143    0.000000000000
 H   -2.817300536643    1.961450614143    0.000000000000
 H   -3.882207536643    0.811868614143    0.888615000000
 H   -3.882207536643    0.811868614143   -0.888615000000
 H   -2.181490536643   -3.310353385857    0.000000000000
 H   -0.997598536643   -2.278930385857    0.896190000000
 H   -0.997598536643   -2.278930385857   -0.896190000000
NA    6.800466425878    1.759615433330    0.000000000000
