12

 C   -3.296301512444    0.944961932263    0.000000000000
 C   -2.183959512444   -0.074516067737    0.000000000000
 O   -2.688290512444   -1.340969067737    0.000000000000
 C   -1.673824512444   -2.374708067737    0.000000000000
 O   -0.986319512444    0.169976932263    0.000000000000
 H   -2.863731512444    1.951971932263    0.000000000000
 H   -3.928638512444    0.802389932263    0.888615000000
 H   -3.928638512444    0.802389932263   -0.888615000000
 H   -2.227921512444   -3.319832067737    0.000000000000
 H   -1.044029512444   -2.288409067737    0.896190000000
 H   -1.044029512444   -2.288409067737   -0.896190000000
NA    6.949993803558    1.790140797506    0.000000000000
