12

 C   -3.365947976146    0.930743909443    0.000000000000
 C   -2.253605976146   -0.088734090557    0.000000000000
 O   -2.757936976146   -1.355187090557    0.000000000000
 C   -1.743470976146   -2.388926090557    0.000000000000
 O   -1.055965976146    0.155758909443    0.000000000000
 H   -2.933377976146    1.937753909443    0.000000000000
 H   -3.998284976146    0.788171909443    0.888615000000
 H   -3.998284976146    0.788171909443   -0.888615000000
 H   -2.297567976146   -3.334050090557    0.000000000000
 H   -1.113675976146   -2.302627090557    0.896190000000
 H   -1.113675976146   -2.302627090557   -0.896190000000
NA    7.174284870079    1.835928843769    0.000000000000
