12

 C   -3.389163464047    0.926004568503    0.000000000000
 C   -2.276821464047   -0.093473431497    0.000000000000
 O   -2.781152464047   -1.359926431497    0.000000000000
 C   -1.766686464047   -2.393665431497    0.000000000000
 O   -1.079181464047    0.151019568503    0.000000000000
 H   -2.956593464047    1.933014568503    0.000000000000
 H   -4.021500464047    0.783432568503    0.888615000000
 H   -4.021500464047    0.783432568503   -0.888615000000
 H   -2.320783464047   -3.338789431497    0.000000000000
 H   -1.136891464047   -2.307366431497    0.896190000000
 H   -1.136891464047   -2.307366431497   -0.896190000000
NA    7.249048558919    1.851191525857    0.000000000000
