12

 C   -3.435594439848    0.916525886624    0.000000000000
 C   -2.323252439848   -0.102952113376    0.000000000000
 O   -2.827583439848   -1.369405113376    0.000000000000
 C   -1.813117439848   -2.403144113376    0.000000000000
 O   -1.125612439848    0.141540886624    0.000000000000
 H   -3.003024439848    1.923535886624    0.000000000000
 H   -4.067931439848    0.773953886624    0.888615000000
 H   -4.067931439848    0.773953886624   -0.888615000000
 H   -2.367214439848   -3.348268113376    0.000000000000
 H   -1.183322439848   -2.316845113376    0.896190000000
 H   -1.183322439848   -2.316845113376   -0.896190000000
NA    7.398575936600    1.881716890033    0.000000000000
