12

 C   -3.458809927748    0.911786545684    0.000000000000
 C   -2.346467927748   -0.107691454316    0.000000000000
 O   -2.850798927748   -1.374144454316    0.000000000000
 C   -1.836332927748   -2.407883454316    0.000000000000
 O   -1.148827927748    0.136801545684    0.000000000000
 H   -3.026239927748    1.918796545684    0.000000000000
 H   -4.091146927748    0.769214545684    0.888615000000
 H   -4.091146927748    0.769214545684   -0.888615000000
 H   -2.390429927748   -3.353007454316    0.000000000000
 H   -1.206537927748   -2.321584454316    0.896190000000
 H   -1.206537927748   -2.321584454316   -0.896190000000
NA    7.473339625440    1.896979572120    0.000000000000
