12

 C   -3.505240903549    0.902307863804    0.000000000000
 C   -2.392898903549   -0.117170136196    0.000000000000
 O   -2.897229903549   -1.383623136196    0.000000000000
 C   -1.882763903549   -2.417362136196    0.000000000000
 O   -1.195258903549    0.127322863804    0.000000000000
 H   -3.072670903549    1.909317863804    0.000000000000
 H   -4.137577903549    0.759735863804    0.888615000000
 H   -4.137577903549    0.759735863804   -0.888615000000
 H   -2.436860903549   -3.362486136196    0.000000000000
 H   -1.252968903549   -2.331063136196    0.896190000000
 H   -1.252968903549   -2.331063136196   -0.896190000000
NA    7.622867003121    1.927504936296    0.000000000000
