12

 C   -3.598102855151    0.883350500044    0.000000000000
 C   -2.485760855151   -0.136127499956    0.000000000000
 O   -2.990091855151   -1.402580499956    0.000000000000
 C   -1.975625855151   -2.436319499956    0.000000000000
 O   -1.288120855151    0.108365500044    0.000000000000
 H   -3.165532855151    1.890360500044    0.000000000000
 H   -4.230439855151    0.740778500044    0.888615000000
 H   -4.230439855151    0.740778500044   -0.888615000000
 H   -2.529722855151   -3.381443499956    0.000000000000
 H   -1.345830855151   -2.350020499956    0.896190000000
 H   -1.345830855151   -2.350020499956   -0.896190000000
NA    7.921921758482    1.988555664647    0.000000000000
