8

 C    3.201261802392   -2.890202358616    0.000000000000
 H    4.236761802392   -3.266290358616    0.000000000000
 H    2.668061802392   -3.270905358616    0.888337000000
 H    2.668061802392   -3.270905358616   -0.888337000000
 C    3.159495802392   -1.334118358616    0.000000000000
 O    1.992299802392   -0.827895358616    0.000000000000
 O    4.283566802392   -0.738700358616    0.000000000000
CS   -1.402191050548    0.644324682446    0.000000000000
