8

 C    3.900123083328   -3.193304540442    0.000000000000
 H    4.935623083328   -3.569392540442    0.000000000000
 H    3.366923083328   -3.574007540442    0.888337000000
 H    3.366923083328   -3.574007540442   -0.888337000000
 C    3.858357083328   -1.637220540442    0.000000000000
 O    2.691161083328   -1.130997540442    0.000000000000
 O    4.982428083328   -1.041802540442    0.000000000000
CS   -1.712502725892    0.778909539855    0.000000000000
