8

 C    4.154254458213   -3.303523515652    0.000000000000
 H    5.189754458213   -3.679611515652    0.000000000000
 H    3.621054458213   -3.684226515652    0.888337000000
 H    3.621054458213   -3.684226515652   -0.888337000000
 C    4.112488458213   -1.747439515652    0.000000000000
 O    2.945292458213   -1.241216515652    0.000000000000
 O    5.236559458213   -1.152021515652    0.000000000000
CS   -1.825343335108    0.827849488003    0.000000000000
