8

 C    4.980181426591   -3.661735185083    0.000000000000
 H    6.015681426591   -4.037823185083    0.000000000000
 H    4.446981426591   -4.042438185083    0.888337000000
 H    4.446981426591   -4.042438185083   -0.888337000000
 C    4.938415426591   -2.105651185083    0.000000000000
 O    3.771219426591   -1.599428185083    0.000000000000
 O    6.062486426591   -1.510233185083    0.000000000000
CS   -2.192075315060    0.986904319486    0.000000000000
