8

 C    6.250838301020   -4.212830061131    0.000000000000
 H    7.286338301020   -4.588918061131    0.000000000000
 H    5.717638301020   -4.593533061131    0.888337000000
 H    5.717638301020   -4.593533061131   -0.888337000000
 C    6.209072301020   -2.656746061131    0.000000000000
 O    5.041876301020   -2.150523061131    0.000000000000
 O    7.333143301020   -2.061328061131    0.000000000000
CS   -2.756278361140    1.231604060229    0.000000000000
