8

 C    6.314371144741   -4.240384804933    0.000000000000
 H    7.349871144741   -4.616472804933    0.000000000000
 H    5.781171144741   -4.621087804933    0.888337000000
 H    5.781171144741   -4.621087804933   -0.888337000000
 C    6.272605144741   -2.684300804933    0.000000000000
 O    5.105409144741   -2.178077804933    0.000000000000
 O    7.396676144741   -2.088882804933    0.000000000000
CS   -2.784488513444    1.243839047266    0.000000000000
