8

 C    6.759101050791   -4.433268011550    0.000000000000
 H    7.794601050791   -4.809356011550    0.000000000000
 H    6.225901050791   -4.813971011550    0.888337000000
 H    6.225901050791   -4.813971011550   -0.888337000000
 C    6.717335050791   -2.877184011550    0.000000000000
 O    5.550139050791   -2.370961011550    0.000000000000
 O    7.841406050791   -2.281766011550    0.000000000000
CS   -2.981959579572    1.329483956526    0.000000000000
