8

 C    6.822633894512   -4.460822755353    0.000000000000
 H    7.858133894512   -4.836910755353    0.000000000000
 H    6.289433894512   -4.841525755353    0.888337000000
 H    6.289433894512   -4.841525755353   -0.888337000000
 C    6.780867894512   -2.904738755353    0.000000000000
 O    5.613671894512   -2.398515755353    0.000000000000
 O    7.904938894512   -2.309320755353    0.000000000000
CS   -3.010169731876    1.341718943563    0.000000000000
