8

 C    7.013232425676   -4.543486986760    0.000000000000
 H    8.048732425676   -4.919574986760    0.000000000000
 H    6.480032425676   -4.924189986760    0.888337000000
 H    6.480032425676   -4.924189986760   -0.888337000000
 C    6.971466425676   -2.987402986760    0.000000000000
 O    5.804270425676   -2.481179986760    0.000000000000
 O    8.095537425676   -2.391984986760    0.000000000000
CS   -3.094800188788    1.378423904674    0.000000000000
