13

 C    1.708964587662    0.739814275250    0.000000000000
 H    1.242344587662    1.731981275250    0.000000000000
 H    2.346113587662    0.635397275250    0.892506000000
 H    2.346113587662    0.635397275250   -0.892506000000
 C    0.610789587662   -0.311270724750    0.000000000000
 O   -0.595373412338   -0.033216724750    0.000000000000
 N    1.041718587662   -1.611419724750    0.000000000000
 H    2.033895587662   -1.805320724750    0.000000000000
 C    0.083383587662   -2.709947724750    0.000000000000
 H   -0.560681412338   -2.661468724750    0.890708000000
 H   -0.560681412338   -2.661468724750   -0.890708000000
 H    0.636609587662   -3.658372724750    0.000000000000
 K   -1.063662748969    1.496719580198    0.000000000000
