13

 C    1.729325754427    0.673292819800    0.000000000000
 H    1.262705754427    1.665459819800    0.000000000000
 H    2.366474754427    0.568875819800    0.892506000000
 H    2.366474754427    0.568875819800   -0.892506000000
 C    0.631150754427   -0.377792180200    0.000000000000
 O   -0.575012245573   -0.099738180200    0.000000000000
 N    1.062079754427   -1.677941180200    0.000000000000
 H    2.054256754427   -1.871842180200    0.000000000000
 C    0.103744754427   -2.776469180200    0.000000000000
 H   -0.540320245573   -2.727990180200    0.890708000000
 H   -0.540320245573   -2.727990180200   -0.890708000000
 H    0.656970754427   -3.724894180200    0.000000000000
 K   -1.101837749283    1.621440162866    0.000000000000
