13

 C    1.759867504574    0.573510636625    0.000000000000
 H    1.293247504574    1.565677636625    0.000000000000
 H    2.397016504574    0.469093636625    0.892506000000
 H    2.397016504574    0.469093636625   -0.892506000000
 C    0.661692504574   -0.477574363375    0.000000000000
 O   -0.544470495426   -0.199520363375    0.000000000000
 N    1.092621504574   -1.777723363375    0.000000000000
 H    2.084798504574   -1.971624363375    0.000000000000
 C    0.134286504574   -2.876251363375    0.000000000000
 H   -0.509778495426   -2.827772363375    0.890708000000
 H   -0.509778495426   -2.827772363375   -0.890708000000
 H    0.687512504574   -3.824676363375    0.000000000000
 K   -1.159100249754    1.808521036869    0.000000000000
