13

 C    1.790409254721    0.473728453450    0.000000000000
 H    1.323789254721    1.465895453450    0.000000000000
 H    2.427558254721    0.369311453450    0.892506000000
 H    2.427558254721    0.369311453450   -0.892506000000
 C    0.692234254721   -0.577356546550    0.000000000000
 O   -0.513928745279   -0.299302546550    0.000000000000
 N    1.123163254721   -1.877505546550    0.000000000000
 H    2.115340254721   -2.071406546550    0.000000000000
 C    0.164828254721   -2.976033546550    0.000000000000
 H   -0.479236745279   -2.927554546550    0.890708000000
 H   -0.479236745279   -2.927554546550   -0.890708000000
 H    0.718054254721   -3.924458546550    0.000000000000
 K   -1.216362750226    1.995601910872    0.000000000000
