13

 C    1.800589838103    0.440467725725    0.000000000000
 H    1.333969838103    1.432634725725    0.000000000000
 H    2.437738838103    0.336050725725    0.892506000000
 H    2.437738838103    0.336050725725   -0.892506000000
 C    0.702414838103   -0.610617274275    0.000000000000
 O   -0.503748161897   -0.332563274275    0.000000000000
 N    1.133343838103   -1.910766274275    0.000000000000
 H    2.125520838103   -2.104667274275    0.000000000000
 C    0.175008838103   -3.009294274275    0.000000000000
 H   -0.469056161897   -2.960815274275    0.890708000000
 H   -0.469056161897   -2.960815274275   -0.890708000000
 H    0.728234838103   -3.957719274275    0.000000000000
 K   -1.235450250383    2.057962202206    0.000000000000
