13

 C    1.810770421486    0.407206998000    0.000000000000
 H    1.344150421486    1.399373998000    0.000000000000
 H    2.447919421486    0.302789998000    0.892506000000
 H    2.447919421486    0.302789998000   -0.892506000000
 C    0.712595421486   -0.643878002000    0.000000000000
 O   -0.493567578514   -0.365824002000    0.000000000000
 N    1.143524421486   -1.944027002000    0.000000000000
 H    2.135701421486   -2.137928002000    0.000000000000
 C    0.185189421486   -3.042555002000    0.000000000000
 H   -0.458875578514   -2.994076002000    0.890708000000
 H   -0.458875578514   -2.994076002000   -0.890708000000
 H    0.738415421486   -3.990980002000    0.000000000000
 K   -1.254537750540    2.120322493541    0.000000000000
