13

 C    1.820951004868    0.373946270276    0.000000000000
 H    1.354331004868    1.366113270276    0.000000000000
 H    2.458100004868    0.269529270276    0.892506000000
 H    2.458100004868    0.269529270276   -0.892506000000
 C    0.722776004868   -0.677138729724    0.000000000000
 O   -0.483386995132   -0.399084729724    0.000000000000
 N    1.153705004868   -1.977287729724    0.000000000000
 H    2.145882004868   -2.171188729724    0.000000000000
 C    0.195370004868   -3.075815729724    0.000000000000
 H   -0.448694995132   -3.027336729724    0.890708000000
 H   -0.448694995132   -3.027336729724   -0.890708000000
 H    0.748596004868   -4.024240729724    0.000000000000
 K   -1.273625250697    2.182682784875    0.000000000000
