13

 C    1.882034505162    0.174381903926    0.000000000000
 H    1.415414505162    1.166548903926    0.000000000000
 H    2.519183505162    0.069964903926    0.892506000000
 H    2.519183505162    0.069964903926   -0.892506000000
 C    0.783859505162   -0.876703096074    0.000000000000
 O   -0.422303494838   -0.598649096074    0.000000000000
 N    1.214788505162   -2.176852096074    0.000000000000
 H    2.206965505162   -2.370753096074    0.000000000000
 C    0.256453505162   -3.275380096074    0.000000000000
 H   -0.387611494838   -3.226901096074    0.890708000000
 H   -0.387611494838   -3.226901096074   -0.890708000000
 H    0.809679505162   -4.223805096074    0.000000000000
 K   -1.388150251640    2.556844532881    0.000000000000
