13

 C    1.892215088544    0.141121176201    0.000000000000
 H    1.425595088544    1.133288176201    0.000000000000
 H    2.529364088544    0.036704176201    0.892506000000
 H    2.529364088544    0.036704176201   -0.892506000000
 C    0.794040088544   -0.909963823799    0.000000000000
 O   -0.412122911456   -0.631909823799    0.000000000000
 N    1.224969088544   -2.210112823799    0.000000000000
 H    2.217146088544   -2.404013823799    0.000000000000
 C    0.266634088544   -3.308640823799    0.000000000000
 H   -0.377430911456   -3.260161823799    0.890708000000
 H   -0.377430911456   -3.260161823799   -0.890708000000
 H    0.819860088544   -4.257065823799    0.000000000000
 K   -1.407237751797    2.619204824215    0.000000000000
