13

 C    1.922756838691    0.041338993026    0.000000000000
 H    1.456136838691    1.033505993026    0.000000000000
 H    2.559905838691   -0.063078006974    0.892506000000
 H    2.559905838691   -0.063078006974   -0.892506000000
 C    0.824581838691   -1.009746006974    0.000000000000
 O   -0.381581161309   -0.731692006974    0.000000000000
 N    1.255510838691   -2.309895006974    0.000000000000
 H    2.247687838691   -2.503796006974    0.000000000000
 C    0.297175838691   -3.408423006974    0.000000000000
 H   -0.346889161309   -3.359944006974    0.890708000000
 H   -0.346889161309   -3.359944006974   -0.890708000000
 H    0.850401838691   -4.356848006974    0.000000000000
 K   -1.464500252268    2.806285698218    0.000000000000
