13

 C    1.932937422074    0.008078265301    0.000000000000
 H    1.466317422074    1.000245265301    0.000000000000
 H    2.570086422074   -0.096338734699    0.892506000000
 H    2.570086422074   -0.096338734699   -0.892506000000
 C    0.834762422074   -1.043006734699    0.000000000000
 O   -0.371400577926   -0.764952734699    0.000000000000
 N    1.265691422074   -2.343155734699    0.000000000000
 H    2.257868422074   -2.537056734699    0.000000000000
 C    0.307356422074   -3.441683734699    0.000000000000
 H   -0.336708577926   -3.393204734699    0.890708000000
 H   -0.336708577926   -3.393204734699   -0.890708000000
 H    0.860582422074   -4.390108734699    0.000000000000
 K   -1.483587752425    2.868645989552    0.000000000000
