13

 C    2.004201505750   -0.224746828773    0.000000000000
 H    1.537581505750    0.767420171227    0.000000000000
 H    2.641350505750   -0.329163828773    0.892506000000
 H    2.641350505750   -0.329163828773   -0.892506000000
 C    0.906026505750   -1.275831828773    0.000000000000
 O   -0.300136494250   -0.997777828773    0.000000000000
 N    1.336955505750   -2.575980828773    0.000000000000
 H    2.329132505750   -2.769881828773    0.000000000000
 C    0.378620505750   -3.674508828773    0.000000000000
 H   -0.265444494250   -3.626029828773    0.890708000000
 H   -0.265444494250   -3.626029828773   -0.890708000000
 H    0.931846505750   -4.622933828773    0.000000000000
 K   -1.617200253525    3.305168028893    0.000000000000
