13

 C    2.014382089132   -0.258007556498    0.000000000000
 H    1.547762089132    0.734159443502    0.000000000000
 H    2.651531089132   -0.362424556498    0.892506000000
 H    2.651531089132   -0.362424556498   -0.892506000000
 C    0.916207089132   -1.309092556498    0.000000000000
 O   -0.289955910868   -1.031038556498    0.000000000000
 N    1.347136089132   -2.609241556498    0.000000000000
 H    2.339313089132   -2.803142556498    0.000000000000
 C    0.388801089132   -3.707769556498    0.000000000000
 H   -0.255263910868   -3.659290556498    0.890708000000
 H   -0.255263910868   -3.659290556498   -0.890708000000
 H    0.942027089132   -4.656194556498    0.000000000000
 K   -1.636287753682    3.367528320227    0.000000000000
