13

 C    2.034743255897   -0.324529011948    0.000000000000
 H    1.568123255897    0.667637988052    0.000000000000
 H    2.671892255897   -0.428946011948    0.892506000000
 H    2.671892255897   -0.428946011948   -0.892506000000
 C    0.936568255897   -1.375614011948    0.000000000000
 O   -0.269594744103   -1.097560011948    0.000000000000
 N    1.367497255897   -2.675763011948    0.000000000000
 H    2.359674255897   -2.869664011948    0.000000000000
 C    0.409162255897   -3.774291011948    0.000000000000
 H   -0.234902744103   -3.725812011948    0.890708000000
 H   -0.234902744103   -3.725812011948   -0.890708000000
 H    0.962388255897   -4.722716011948    0.000000000000
 K   -1.674462753996    3.492248902895    0.000000000000
