13

 C    2.044923839279   -0.357789739673    0.000000000000
 H    1.578303839279    0.634377260327    0.000000000000
 H    2.682072839279   -0.462206739673    0.892506000000
 H    2.682072839279   -0.462206739673   -0.892506000000
 C    0.946748839279   -1.408874739673    0.000000000000
 O   -0.259414160721   -1.130820739673    0.000000000000
 N    1.377677839279   -2.709023739673    0.000000000000
 H    2.369854839279   -2.902924739673    0.000000000000
 C    0.419342839279   -3.807551739673    0.000000000000
 H   -0.224722160721   -3.759072739673    0.890708000000
 H   -0.224722160721   -3.759072739673   -0.890708000000
 H    0.972568839279   -4.755976739673    0.000000000000
 K   -1.693550254154    3.554609194230    0.000000000000
