13

 C    2.065285006044   -0.424311195123    0.000000000000
 H    1.598665006044    0.567855804877    0.000000000000
 H    2.702434006044   -0.528728195123    0.892506000000
 H    2.702434006044   -0.528728195123   -0.892506000000
 C    0.967110006044   -1.475396195123    0.000000000000
 O   -0.239052993956   -1.197342195123    0.000000000000
 N    1.398039006044   -2.775545195123    0.000000000000
 H    2.390216006044   -2.969446195123    0.000000000000
 C    0.439704006044   -3.874073195123    0.000000000000
 H   -0.204360993956   -3.825594195123    0.890708000000
 H   -0.204360993956   -3.825594195123   -0.890708000000
 H    0.992930006044   -4.822498195123    0.000000000000
 K   -1.731725254468    3.679329776898    0.000000000000
