13

 C    2.085646172809   -0.490832650573    0.000000000000
 H    1.619026172809    0.501334349427    0.000000000000
 H    2.722795172809   -0.595249650573    0.892506000000
 H    2.722795172809   -0.595249650573   -0.892506000000
 C    0.987471172809   -1.541917650573    0.000000000000
 O   -0.218691827191   -1.263863650573    0.000000000000
 N    1.418400172809   -2.842066650573    0.000000000000
 H    2.410577172809   -3.035967650573    0.000000000000
 C    0.460065172809   -3.940594650573    0.000000000000
 H   -0.183999827191   -3.892115650573    0.890708000000
 H   -0.183999827191   -3.892115650573   -0.890708000000
 H    1.013291172809   -4.889019650573    0.000000000000
 K   -1.769900254782    3.804050359567    0.000000000000
