13

 C    2.095826756191   -0.524093378298    0.000000000000
 H    1.629206756191    0.468073621702    0.000000000000
 H    2.732975756191   -0.628510378298    0.892506000000
 H    2.732975756191   -0.628510378298   -0.892506000000
 C    0.997651756191   -1.575178378298    0.000000000000
 O   -0.208511243809   -1.297124378298    0.000000000000
 N    1.428580756191   -2.875327378298    0.000000000000
 H    2.420757756191   -3.069228378298    0.000000000000
 C    0.470245756191   -3.973855378298    0.000000000000
 H   -0.173819243809   -3.925376378298    0.890708000000
 H   -0.173819243809   -3.925376378298   -0.890708000000
 H    1.023471756191   -4.922280378298    0.000000000000
 K   -1.788987754939    3.866410650901    0.000000000000
