13

 C    2.146729673103   -0.690397016923    0.000000000000
 H    1.680109673103    0.301769983077    0.000000000000
 H    2.783878673103   -0.794814016923    0.892506000000
 H    2.783878673103   -0.794814016923   -0.892506000000
 C    1.048554673103   -1.741482016923    0.000000000000
 O   -0.157608326897   -1.463428016923    0.000000000000
 N    1.479483673103   -3.041631016923    0.000000000000
 H    2.471660673103   -3.235532016923    0.000000000000
 C    0.521148673103   -4.140159016923    0.000000000000
 H   -0.122916326897   -4.091680016923    0.890708000000
 H   -0.122916326897   -4.091680016923   -0.890708000000
 H    1.074374673103   -5.088584016923    0.000000000000
 K   -1.884425255725    4.178212107573    0.000000000000
