13

 C    2.167090839867   -0.756918472372    0.000000000000
 H    1.700470839867    0.235248527628    0.000000000000
 H    2.804239839867   -0.861335472372    0.892506000000
 H    2.804239839867   -0.861335472372   -0.892506000000
 C    1.068915839867   -1.808003472372    0.000000000000
 O   -0.137247160133   -1.529949472372    0.000000000000
 N    1.499844839867   -3.108152472372    0.000000000000
 H    2.492021839867   -3.302053472372    0.000000000000
 C    0.541509839867   -4.206680472372    0.000000000000
 H   -0.102555160133   -4.158201472372    0.890708000000
 H   -0.102555160133   -4.158201472372   -0.890708000000
 H    1.094735839867   -5.155105472372    0.000000000000
 K   -1.922600256039    4.302932690241    0.000000000000
