13

 C    2.207813173397   -0.889961383272    0.000000000000
 H    1.741193173397    0.102205616728    0.000000000000
 H    2.844962173397   -0.994378383272    0.892506000000
 H    2.844962173397   -0.994378383272   -0.892506000000
 C    1.109638173397   -1.941046383272    0.000000000000
 O   -0.096524826603   -1.662992383272    0.000000000000
 N    1.540567173397   -3.241195383272    0.000000000000
 H    2.532744173397   -3.435096383272    0.000000000000
 C    0.582232173397   -4.339723383272    0.000000000000
 H   -0.061832826603   -4.291244383272    0.890708000000
 H   -0.061832826603   -4.291244383272   -0.890708000000
 H    1.135458173397   -5.288148383272    0.000000000000
 K   -1.998950256667    4.552373855579    0.000000000000
