13

 C    2.238354923544   -0.989743566447    0.000000000000
 H    1.771734923544    0.002423433553    0.000000000000
 H    2.875503923544   -1.094160566447    0.892506000000
 H    2.875503923544   -1.094160566447   -0.892506000000
 C    1.140179923544   -2.040828566447    0.000000000000
 O   -0.065983076456   -1.762774566447    0.000000000000
 N    1.571108923544   -3.340977566447    0.000000000000
 H    2.563285923544   -3.534878566447    0.000000000000
 C    0.612773923544   -4.439505566447    0.000000000000
 H   -0.031291076456   -4.391026566447    0.890708000000
 H   -0.031291076456   -4.391026566447   -0.890708000000
 H    1.165999923544   -5.387930566447    0.000000000000
 K   -2.056212757139    4.739454729582    0.000000000000
