13

 C    2.309619007220   -1.222568660522    0.000000000000
 H    1.842999007220   -0.230401660522    0.000000000000
 H    2.946768007220   -1.326985660522    0.892506000000
 H    2.946768007220   -1.326985660522   -0.892506000000
 C    1.211444007220   -2.273653660522    0.000000000000
 O    0.005281007220   -1.995599660522    0.000000000000
 N    1.642373007220   -3.573802660522    0.000000000000
 H    2.634550007220   -3.767703660522    0.000000000000
 C    0.684038007220   -4.672330660522    0.000000000000
 H    0.039973007220   -4.623851660522    0.890708000000
 H    0.039973007220   -4.623851660522   -0.890708000000
 H    1.237264007220   -5.620755660522    0.000000000000
 K   -2.189825258238    5.175976768922    0.000000000000
