13

 C    2.329980173985   -1.289090115971    0.000000000000
 H    1.863360173985   -0.296923115971    0.000000000000
 H    2.967129173985   -1.393507115971    0.892506000000
 H    2.967129173985   -1.393507115971   -0.892506000000
 C    1.231805173985   -2.340175115971    0.000000000000
 O    0.025642173985   -2.062121115971    0.000000000000
 N    1.662734173985   -3.640324115971    0.000000000000
 H    2.654911173985   -3.834225115971    0.000000000000
 C    0.704399173985   -4.738852115971    0.000000000000
 H    0.060334173985   -4.690373115971    0.890708000000
 H    0.060334173985   -4.690373115971   -0.890708000000
 H    1.257625173985   -5.687277115971    0.000000000000
 K   -2.228000258553    5.300697351590    0.000000000000
