13

 C    2.380883090896   -1.455393754596    0.000000000000
 H    1.914263090896   -0.463226754596    0.000000000000
 H    3.018032090896   -1.559810754596    0.892506000000
 H    3.018032090896   -1.559810754596   -0.892506000000
 C    1.282708090896   -2.506478754596    0.000000000000
 O    0.076545090896   -2.228424754596    0.000000000000
 N    1.713637090896   -3.806627754596    0.000000000000
 H    2.705814090896   -4.000528754596    0.000000000000
 C    0.755302090896   -4.905155754596    0.000000000000
 H    0.111237090896   -4.856676754596    0.890708000000
 H    0.111237090896   -4.856676754596   -0.890708000000
 H    1.308528090896   -5.853580754596    0.000000000000
 K   -2.323437759338    5.612498808262    0.000000000000
