13

 C    2.452147174573   -1.688218848671    0.000000000000
 H    1.985527174573   -0.696051848671    0.000000000000
 H    3.089296174573   -1.792635848671    0.892506000000
 H    3.089296174573   -1.792635848671   -0.892506000000
 C    1.353972174573   -2.739303848671    0.000000000000
 O    0.147809174573   -2.461249848671    0.000000000000
 N    1.784901174573   -4.039452848671    0.000000000000
 H    2.777078174573   -4.233353848671    0.000000000000
 C    0.826566174573   -5.137980848671    0.000000000000
 H    0.182501174573   -5.089501848671    0.890708000000
 H    0.182501174573   -5.089501848671   -0.890708000000
 H    1.379792174573   -6.086405848671    0.000000000000
 K   -2.457050260438    6.049020847602    0.000000000000
