13

 C    2.482688924720   -1.788001031846    0.000000000000
 H    2.016068924720   -0.795834031846    0.000000000000
 H    3.119837924720   -1.892418031846    0.892506000000
 H    3.119837924720   -1.892418031846   -0.892506000000
 C    1.384513924720   -2.839086031846    0.000000000000
 O    0.178350924720   -2.561032031846    0.000000000000
 N    1.815442924720   -4.139235031846    0.000000000000
 H    2.807619924720   -4.333136031846    0.000000000000
 C    0.857107924720   -5.237763031846    0.000000000000
 H    0.213042924720   -5.189284031846    0.890708000000
 H    0.213042924720   -5.189284031846   -0.890708000000
 H    1.410333924720   -6.186188031846    0.000000000000
 K   -2.514312760909    6.236101721605    0.000000000000
