13

 C    2.553953008396   -2.020826125920    0.000000000000
 H    2.087333008396   -1.028659125920    0.000000000000
 H    3.191102008396   -2.125243125920    0.892506000000
 H    3.191102008396   -2.125243125920   -0.892506000000
 C    1.455778008396   -3.071911125920    0.000000000000
 O    0.249615008396   -2.793857125920    0.000000000000
 N    1.886707008396   -4.372060125920    0.000000000000
 H    2.878884008396   -4.565961125920    0.000000000000
 C    0.928372008396   -5.470588125920    0.000000000000
 H    0.284307008396   -5.422109125920    0.890708000000
 H    0.284307008396   -5.422109125920   -0.890708000000
 H    1.481598008396   -6.419013125920    0.000000000000
 K   -2.647925262009    6.672623760945    0.000000000000
