18

 C    1.217750656936   -3.946206500533    0.000000000000
 H    0.133110656936   -3.798556500533    0.000000000000
 H    1.520010656936   -4.523456500533    0.885110000000
 H    1.520010656936   -4.523456500533   -0.885110000000
 C    1.928690656936   -2.625506500533    0.000000000000
 O    1.420280656936   -1.502496500533    0.000000000000
 O    3.261390656936   -2.835696500533    0.000000000000
 H    3.728220656936   -1.982386500533    0.000000000000
RB   -0.772859343064    0.800393499467    2.932040000000
RB   -0.772859343064    0.800393499467   -2.932040000000
 O    0.730644904931   -0.778340074367    0.000000000000
 C    0.222236399636    0.344666624030    0.000000000000
 O    0.943612111603    1.484788008394    0.000000000000
 H    1.892838577728    1.272569744316    0.000000000000
 C   -1.239272255057    0.681849752695    0.000000000000
 H   -1.843968722784   -0.230607869071    0.000000000000
 H   -1.473601322883    1.289852801964    0.885110732141
 H   -1.473601322883    1.289852801964   -0.885110732141
