18

 C    1.346270268798   -4.081159339836    0.000000000000
 H    0.261630268798   -3.933509339836    0.000000000000
 H    1.648530268798   -4.658409339836    0.885110000000
 H    1.648530268798   -4.658409339836   -0.885110000000
 C    2.057210268798   -2.760459339836    0.000000000000
 O    1.548800268798   -1.637449339836    0.000000000000
 O    3.389910268798   -2.970649339836    0.000000000000
 H    3.856740268798   -2.117339339836    0.000000000000
RB   -0.644339731202    0.665440660164    2.932040000000
RB   -0.644339731202    0.665440660164   -2.932040000000
 O    0.238492339990   -0.261552130121    0.000000000000
 C   -0.269916165306    0.861454568275    0.000000000000
 O    0.451459546662    2.001575952639    0.000000000000
 H    1.400686012786    1.789357688562    0.000000000000
 C   -1.731424819999    1.198637696941    0.000000000000
 H   -2.336121287725    0.286180075174    0.000000000000
 H   -1.965753887825    1.806640746210    0.885110732141
 H   -1.965753887825    1.806640746210   -0.885110732141
