18

 C    2.510358710856   -5.292379356197    0.000000000000
 H    1.425718710856   -5.144729356197    0.000000000000
 H    2.812618710856   -5.869629356197    0.885110000000
 H    2.812618710856   -5.869629356197   -0.885110000000
 C    3.221298710856   -3.971679356197    0.000000000000
 O    2.712888710856   -2.848669356197    0.000000000000
 O    4.553998710856   -4.181869356197    0.000000000000
 H    5.020828710856   -3.328559356197    0.000000000000
RB    0.519748710856   -0.545779356197    2.932040000000
RB    0.519748710856   -0.545779356197   -2.932040000000
 O   -4.183468809187    4.392894905463    0.000000000000
 C   -4.691877314482    5.515901603859    0.000000000000
 O   -6.024572047935    5.726102546592    0.000000000000
 H   -6.491415124580    4.872800128109    0.000000000000
 C   -3.980927076611    6.836602088175    0.000000000000
 H   -2.896292298340    6.688939881211    0.000000000000
 H   -4.283186529065    7.413851638500   -0.885110732141
 H   -4.283186529065    7.413851638500    0.885110732141
