18

 C    1.403390096292   -4.141138379527    0.000000000000
 H    0.318750096292   -3.993488379527    0.000000000000
 H    1.705650096292   -4.718388379527    0.885110000000
 H    1.705650096292   -4.718388379527   -0.885110000000
 C    2.114330096292   -2.820438379527    0.000000000000
 O    1.605920096292   -1.697428379527    0.000000000000
 O    3.447030096292   -3.030628379527    0.000000000000
 H    3.913860096292   -2.177318379527    0.000000000000
RB   -0.587219903708    0.605461620473    2.932040000000
RB   -0.587219903708    0.605461620473   -2.932040000000
 O    0.019757866682   -0.031868599345    0.000000000000
 C   -0.488650638613    1.091138099051    0.000000000000
 O    0.232725073354    2.231259483415    0.000000000000
 H    1.181951539479    2.019041219338    0.000000000000
 C   -1.950159293307    1.428321227716    0.000000000000
 H   -2.554855761033    0.515863605950    0.000000000000
 H   -2.184488361132    2.036324276986    0.885110732141
 H   -2.184488361132    2.036324276986   -0.885110732141
