18

 C    1.417670053166   -4.156133139449    0.000000000000
 H    0.333030053166   -4.008483139449    0.000000000000
 H    1.719930053166   -4.733383139449    0.885110000000
 H    1.719930053166   -4.733383139449   -0.885110000000
 C    2.128610053166   -2.835433139449    0.000000000000
 O    1.620200053166   -1.712423139449    0.000000000000
 O    3.461310053166   -3.045623139449    0.000000000000
 H    3.928140053166   -2.192313139449    0.000000000000
RB   -0.572939946834    0.590466860551    2.932040000000
RB   -0.572939946834    0.590466860551   -2.932040000000
 O   -0.034925751645    0.025552283349    0.000000000000
 C   -0.543334256940    1.148558981745    0.000000000000
 O    0.178041455027    2.288680366109    0.000000000000
 H    1.127267921152    2.076462102032    0.000000000000
 C   -2.004842911633    1.485742110410    0.000000000000
 H   -2.609539379360    0.573284488644    0.000000000000
 H   -2.239171979459    2.093745159680    0.885110732141
 H   -2.239171979459    2.093745159680   -0.885110732141
