18

 C    1.460509923786   -4.201117419217    0.000000000000
 H    0.375869923786   -4.053467419217    0.000000000000
 H    1.762769923786   -4.778367419217    0.885110000000
 H    1.762769923786   -4.778367419217   -0.885110000000
 C    2.171449923786   -2.880417419217    0.000000000000
 O    1.663039923786   -1.757407419217    0.000000000000
 O    3.504149923786   -3.090607419217    0.000000000000
 H    3.970979923786   -2.237297419217    0.000000000000
RB   -0.530100076214    0.545482580783    2.932040000000
RB   -0.530100076214    0.545482580783   -2.932040000000
 O   -0.198976606625    0.197814931431    0.000000000000
 C   -0.707385111921    1.320821629827    0.000000000000
 O    0.013990600047    2.460943014191    0.000000000000
 H    0.963217066172    2.248724750114    0.000000000000
 C   -2.168893766614    1.658004758492    0.000000000000
 H   -2.773590234340    0.745547136726    0.000000000000
 H   -2.403222834440    2.266007807762    0.885110732141
 H   -2.403222834440    2.266007807762   -0.885110732141
