18

 C    1.503349794407   -4.246101698985    0.000000000000
 H    0.418709794407   -4.098451698985    0.000000000000
 H    1.805609794407   -4.823351698985    0.885110000000
 H    1.805609794407   -4.823351698985   -0.885110000000
 C    2.214289794407   -2.925401698985    0.000000000000
 O    1.705879794407   -1.802391698985    0.000000000000
 O    3.546989794407   -3.135591698985    0.000000000000
 H    4.013819794407   -2.282281698985    0.000000000000
RB   -0.487260205593    0.500498301015    2.932040000000
RB   -0.487260205593    0.500498301015   -2.932040000000
 O   -0.363027461606    0.370077579513    0.000000000000
 C   -0.871435966901    1.493084277909    0.000000000000
 O   -0.150060254934    2.633205662273    0.000000000000
 H    0.799166211191    2.420987398195    0.000000000000
 C   -2.332944621595    1.830267406574    0.000000000000
 H   -2.937641089321    0.917809784808    0.000000000000
 H   -2.567273689420    2.438270455843    0.885110732141
 H   -2.567273689420    2.438270455843   -0.885110732141
