18

 C    1.531909708154   -4.276091218831    0.000000000000
 H    0.447269708154   -4.128441218831    0.000000000000
 H    1.834169708154   -4.853341218831    0.885110000000
 H    1.834169708154   -4.853341218831   -0.885110000000
 C    2.242849708154   -2.955391218831    0.000000000000
 O    1.734439708154   -1.832381218831    0.000000000000
 O    3.575549708154   -3.165581218831    0.000000000000
 H    4.042379708154   -2.312271218831    0.000000000000
RB   -0.458700291846    0.470508781169    2.932040000000
RB   -0.458700291846    0.470508781169   -2.932040000000
 O   -0.472394698260    0.484919344900    0.000000000000
 C   -0.980803203555    1.607926043297    0.000000000000
 O   -0.259427491588    2.748047427661    0.000000000000
 H    0.689798974537    2.535829163583    0.000000000000
 C   -2.442311858248    1.945109171962    0.000000000000
 H   -3.047008325975    1.032651550196    0.000000000000
 H   -2.676640926074    2.553112221231    0.885110732141
 H   -2.676640926074    2.553112221231   -0.885110732141
