18

 C    1.589029535649   -4.336070258521    0.000000000000
 H    0.504389535649   -4.188420258521    0.000000000000
 H    1.891289535649   -4.913320258521    0.885110000000
 H    1.891289535649   -4.913320258521   -0.885110000000
 C    2.299969535649   -3.015370258521    0.000000000000
 O    1.791559535649   -1.892360258521    0.000000000000
 O    3.632669535649   -3.225560258521    0.000000000000
 H    4.099499535649   -2.372250258521    0.000000000000
RB   -0.401580464351    0.410529741479    2.932040000000
RB   -0.401580464351    0.410529741479   -2.932040000000
 O   -0.691129171567    0.714602875676    0.000000000000
 C   -1.199537676862    1.837609574073    0.000000000000
 O   -0.478161964895    2.977730958437    0.000000000000
 H    0.471064501230    2.765512694359    0.000000000000
 C   -2.661046331556    2.174792702738    0.000000000000
 H   -3.265742799282    1.262335080972    0.000000000000
 H   -2.895375399382    2.782795752007    0.885110732141
 H   -2.895375399382    2.782795752007   -0.885110732141
