18

 C    1.610721427821   -4.347709481071    0.000000000000
 H    0.526081427821   -4.200059481071    0.000000000000
 H    1.912981427821   -4.924959481071    0.885110000000
 H    1.912981427821   -4.924959481071   -0.885110000000
 C    2.321661427821   -3.027009481071    0.000000000000
 O    1.813251427821   -1.903999481071    0.000000000000
 O    3.654361427821   -3.237199481071    0.000000000000
 H    4.121191427821   -2.383889481071    0.000000000000
RB   -0.379888572179    0.398890518929    2.932040000000
RB   -0.379888572179    0.398890518929   -2.932040000000
 O   -0.738400854595    0.775379295743    0.000000000000
 C   -1.246809359890    1.898385994140    0.000000000000
 O   -2.579504093344    2.108586936872    0.000000000000
 H   -3.046347169988    1.255284518389    0.000000000000
 C   -0.535859122019    3.219086478455    0.000000000000
 H    0.548775656252    3.071424271491    0.000000000000
 H   -0.838118574473    3.796336028781   -0.885110732141
 H   -0.838118574473    3.796336028781    0.885110732141
