18

 C    1.653561298442   -4.392693760839    0.000000000000
 H    0.568921298442   -4.245043760839    0.000000000000
 H    1.955821298442   -4.969943760839    0.885110000000
 H    1.955821298442   -4.969943760839   -0.885110000000
 C    2.364501298442   -3.071993760839    0.000000000000
 O    1.856091298442   -1.948983760839    0.000000000000
 O    3.697201298442   -3.282183760839    0.000000000000
 H    4.164031298442   -2.428873760839    0.000000000000
RB   -0.337048701558    0.353906239161    2.932040000000
RB   -0.337048701558    0.353906239161   -2.932040000000
 O   -0.902451709575    0.947641943825    0.000000000000
 C   -1.410860214871    2.070648642222    0.000000000000
 O   -2.743554948324    2.280849584954    0.000000000000
 H   -3.210398024968    1.427547166471    0.000000000000
 C   -0.699909976999    3.391349126537    0.000000000000
 H    0.384724801271    3.243686919573    0.000000000000
 H   -1.002169429454    3.968598676862   -0.885110732141
 H   -1.002169429454    3.968598676862    0.885110732141
