18

 C    1.667841255315   -4.407688520761    0.000000000000
 H    0.583201255315   -4.260038520761    0.000000000000
 H    1.970101255315   -4.984938520761    0.885110000000
 H    1.970101255315   -4.984938520761   -0.885110000000
 C    2.378781255315   -3.086988520761    0.000000000000
 O    1.870371255315   -1.963978520761    0.000000000000
 O    3.711481255315   -3.297178520761    0.000000000000
 H    4.178311255315   -2.443868520761    0.000000000000
RB   -0.322768744685    0.338911479239    2.932040000000
RB   -0.322768744685    0.338911479239   -2.932040000000
 O   -0.957135327902    1.005062826519    0.000000000000
 C   -1.465543833198    2.128069524916    0.000000000000
 O   -2.798238566651    2.338270467648    0.000000000000
 H   -3.265081643295    1.484968049165    0.000000000000
 C   -0.754593595326    3.448770009231    0.000000000000
 H    0.330041182944    3.301107802267    0.000000000000
 H   -1.056853047781    4.026019559556   -0.885110732141
 H   -1.056853047781    4.026019559556    0.885110732141
