18

 C    1.710681125936   -4.452672800529    0.000000000000
 H    0.626041125936   -4.305022800529    0.000000000000
 H    2.012941125936   -5.029922800529    0.885110000000
 H    2.012941125936   -5.029922800529   -0.885110000000
 C    2.421621125936   -3.131972800529    0.000000000000
 O    1.913211125936   -2.008962800529    0.000000000000
 O    3.754321125936   -3.342162800529    0.000000000000
 H    4.221151125936   -2.488852800529    0.000000000000
RB   -0.279928874064    0.293927199471    2.932040000000
RB   -0.279928874064    0.293927199471   -2.932040000000
 O   -1.121186182883    1.177325474601    0.000000000000
 C   -1.629594688178    2.300332172998    0.000000000000
 O   -2.962289421632    2.510533115730    0.000000000000
 H   -3.429132498276    1.657230697247    0.000000000000
 C   -0.918644450307    3.621032657313    0.000000000000
 H    0.165990327964    3.473370450349    0.000000000000
 H   -1.220903902761    4.198282207638   -0.885110732141
 H   -1.220903902761    4.198282207638    0.885110732141
