18

 C    1.739241039683   -4.482662320374    0.000000000000
 H    0.654601039683   -4.335012320374    0.000000000000
 H    2.041501039683   -5.059912320374    0.885110000000
 H    2.041501039683   -5.059912320374   -0.885110000000
 C    2.450181039683   -3.161962320374    0.000000000000
 O    1.941771039683   -2.038952320374    0.000000000000
 O    3.782881039683   -3.372152320374    0.000000000000
 H    4.249711039683   -2.518842320374    0.000000000000
RB   -0.251368960317    0.263937679626    2.932040000000
RB   -0.251368960317    0.263937679626   -2.932040000000
 O   -1.230553419537    1.292167239989    0.000000000000
 C   -1.738961924832    2.415173938385    0.000000000000
 O   -3.071656658285    2.625374881118    0.000000000000
 H   -3.538499734929    1.772072462635    0.000000000000
 C   -1.028011686961    3.735874422701    0.000000000000
 H    0.056623091310    3.588212215737    0.000000000000
 H   -1.330271139415    4.313123973026   -0.885110732141
 H   -1.330271139415    4.313123973026    0.885110732141
