18

 C    1.767800953430   -4.512651840220    0.000000000000
 H    0.683160953430   -4.365001840220    0.000000000000
 H    2.070060953430   -5.089901840220    0.885110000000
 H    2.070060953430   -5.089901840220   -0.885110000000
 C    2.478740953430   -3.191951840220    0.000000000000
 O    1.970330953430   -2.068941840220    0.000000000000
 O    3.811440953430   -3.402141840220    0.000000000000
 H    4.278270953430   -2.548831840220    0.000000000000
RB   -0.222809046570    0.233948159780    2.932040000000
RB   -0.222809046570    0.233948159780   -2.932040000000
 O   -1.339920656190    1.407009005377    0.000000000000
 C   -1.848329161486    2.530015703773    0.000000000000
 O   -3.181023894939    2.740216646506    0.000000000000
 H   -3.647866971583    1.886914228023    0.000000000000
 C   -1.137378923614    3.850716188089    0.000000000000
 H   -0.052744145343    3.703053981125    0.000000000000
 H   -1.439638376069    4.427965738414   -0.885110732141
 H   -1.439638376069    4.427965738414    0.885110732141
