18

 C    1.796360867178   -4.542641360065    0.000000000000
 H    0.711720867178   -4.394991360065    0.000000000000
 H    2.098620867178   -5.119891360065    0.885110000000
 H    2.098620867178   -5.119891360065   -0.885110000000
 C    2.507300867178   -3.221941360065    0.000000000000
 O    1.998890867178   -2.098931360065    0.000000000000
 O    3.840000867178   -3.432131360065    0.000000000000
 H    4.306830867178   -2.578821360065    0.000000000000
RB   -0.194249132822    0.203958639935    2.932040000000
RB   -0.194249132822    0.203958639935   -2.932040000000
 O   -1.449287892844    1.521850770765    0.000000000000
 C   -1.957696398139    2.644857469161    0.000000000000
 O   -3.290391131593    2.855058411894    0.000000000000
 H   -3.757234208237    2.001755993411    0.000000000000
 C   -1.246746160268    3.965557953477    0.000000000000
 H   -0.162111381997    3.817895746513    0.000000000000
 H   -1.549005612722    4.542807503802   -0.885110732141
 H   -1.549005612722    4.542807503802    0.885110732141
