18

 C    1.824920780925   -4.572630879910    0.000000000000
 H    0.740280780925   -4.424980879910    0.000000000000
 H    2.127180780925   -5.149880879910    0.885110000000
 H    2.127180780925   -5.149880879910   -0.885110000000
 C    2.535860780925   -3.251930879910    0.000000000000
 O    2.027450780925   -2.128920879910    0.000000000000
 O    3.868560780925   -3.462120879910    0.000000000000
 H    4.335390780925   -2.608810879910    0.000000000000
RB   -0.165689219075    0.173969120090    2.932040000000
RB   -0.165689219075    0.173969120090   -2.932040000000
 O   -1.558655129498    1.636692536153    0.000000000000
 C   -2.067063634793    2.759699234549    0.000000000000
 O   -3.399758368246    2.969900177282    0.000000000000
 H   -3.866601444891    2.116597758799    0.000000000000
 C   -1.356113396922    4.080399718865    0.000000000000
 H   -0.271478618651    3.932737511901    0.000000000000
 H   -1.658372849376    4.657649269190   -0.885110732141
 H   -1.658372849376    4.657649269190    0.885110732141
