18

 C    1.853480694672   -4.602620399756    0.000000000000
 H    0.768840694672   -4.454970399756    0.000000000000
 H    2.155740694672   -5.179870399756    0.885110000000
 H    2.155740694672   -5.179870399756   -0.885110000000
 C    2.564420694672   -3.281920399756    0.000000000000
 O    2.056010694672   -2.158910399756    0.000000000000
 O    3.897120694672   -3.492110399756    0.000000000000
 H    4.363950694672   -2.638800399756    0.000000000000
RB   -0.137129305328    0.143979600244    2.932040000000
RB   -0.137129305328    0.143979600244   -2.932040000000
 O   -1.668022366151    1.751534301541    0.000000000000
 C   -2.176430871447    2.874540999937    0.000000000000
 O   -3.509125604900    3.084741942670    0.000000000000
 H   -3.975968681544    2.231439524186    0.000000000000
 C   -1.465480633575    4.195241484252    0.000000000000
 H   -0.380845855305    4.047579277289    0.000000000000
 H   -1.767740086030    4.772491034578   -0.885110732141
 H   -1.767740086030    4.772491034578    0.885110732141
