18

 C    1.867760651545   -4.617615159678    0.000000000000
 H    0.783120651545   -4.469965159678    0.000000000000
 H    2.170020651545   -5.194865159678    0.885110000000
 H    2.170020651545   -5.194865159678   -0.885110000000
 C    2.578700651545   -3.296915159678    0.000000000000
 O    2.070290651545   -2.173905159678    0.000000000000
 O    3.911400651545   -3.507105159678    0.000000000000
 H    4.378230651545   -2.653795159678    0.000000000000
RB   -0.122849348455    0.128984840322    2.932040000000
RB   -0.122849348455    0.128984840322   -2.932040000000
 O   -1.722705984478    1.808955184235    0.000000000000
 C   -2.231114489774    2.931961882631    0.000000000000
 O   -3.563809223227    3.142162825364    0.000000000000
 H   -4.030652299871    2.288860406880    0.000000000000
 C   -1.520164251902    4.252662366946    0.000000000000
 H   -0.435529473631    4.105000159983    0.000000000000
 H   -1.822423704357    4.829911917272   -0.885110732141
 H   -1.822423704357    4.829911917272    0.885110732141
