18

 C    2.010560220281   -4.767562758905    0.000000000000
 H    0.925920220281   -4.619912758905    0.000000000000
 H    2.312820220281   -5.344812758905    0.885110000000
 H    2.312820220281   -5.344812758905   -0.885110000000
 C    2.721500220281   -3.446862758905    0.000000000000
 O    2.213090220281   -2.323852758905    0.000000000000
 O    4.054200220281   -3.657052758905    0.000000000000
 H    4.521030220281   -2.803742758905    0.000000000000
RB    0.019950220281   -0.020962758905    2.932040000000
RB    0.019950220281   -0.020962758905   -2.932040000000
 O   -2.269542167747    2.383164011174    0.000000000000
 C   -2.777950673042    3.506170709571    0.000000000000
 O   -4.110645406495    3.716371652303    0.000000000000
 H   -4.577488483140    2.863069233820    0.000000000000
 C   -2.067000435171    4.826871193886    0.000000000000
 H   -0.982365656900    4.679208986922    0.000000000000
 H   -2.369259887625    5.404120744211   -0.885110732141
 H   -2.369259887625    5.404120744211    0.885110732141
