18

 C    2.081960004649   -4.842536558518    0.000000000000
 H    0.997320004649   -4.694886558518    0.000000000000
 H    2.384220004649   -5.419786558518    0.885110000000
 H    2.384220004649   -5.419786558518   -0.885110000000
 C    2.792900004649   -3.521836558518    0.000000000000
 O    2.284490004649   -2.398826558518    0.000000000000
 O    4.125600004649   -3.732026558518    0.000000000000
 H    4.592430004649   -2.878716558518    0.000000000000
RB    0.091350004649   -0.095936558518    2.932040000000
RB    0.091350004649   -0.095936558518   -2.932040000000
 O   -2.542960259381    2.670268424644    0.000000000000
 C   -3.051368764676    3.793275123040    0.000000000000
 O   -4.384063498130    4.003476065773    0.000000000000
 H   -4.850906574774    3.150173647290    0.000000000000
 C   -2.340418526805    5.113975607356    0.000000000000
 H   -1.255783748534    4.966313400392    0.000000000000
 H   -2.642677979259    5.691225157681   -0.885110732141
 H   -2.642677979259    5.691225157681    0.885110732141
