18

 C    2.110519918396   -4.872526078363    0.000000000000
 H    1.025879918396   -4.724876078363    0.000000000000
 H    2.412779918396   -5.449776078363    0.885110000000
 H    2.412779918396   -5.449776078363   -0.885110000000
 C    2.821459918396   -3.551826078363    0.000000000000
 O    2.313049918396   -2.428816078363    0.000000000000
 O    4.154159918396   -3.762016078363    0.000000000000
 H    4.620989918396   -2.908706078363    0.000000000000
RB    0.119909918396   -0.125926078363    2.932040000000
RB    0.119909918396   -0.125926078363   -2.932040000000
 O   -2.652327496035    2.785110190032    0.000000000000
 C   -3.160736001330    3.908116888428    0.000000000000
 O   -4.493430734783    4.118317831161    0.000000000000
 H   -4.960273811428    3.265015412678    0.000000000000
 C   -2.449785763459    5.228817372744    0.000000000000
 H   -1.365150985188    5.081155165780    0.000000000000
 H   -2.752045215913    5.806066923069   -0.885110732141
 H   -2.752045215913    5.806066923069    0.885110732141
