18

 C    2.124799875270   -4.887520838286    0.000000000000
 H    1.040159875270   -4.739870838286    0.000000000000
 H    2.427059875270   -5.464770838286    0.885110000000
 H    2.427059875270   -5.464770838286   -0.885110000000
 C    2.835739875270   -3.566820838286    0.000000000000
 O    2.327329875270   -2.443810838286    0.000000000000
 O    4.168439875270   -3.777010838286    0.000000000000
 H    4.635269875270   -2.923700838286    0.000000000000
RB    0.134189875270   -0.140920838286    2.932040000000
RB    0.134189875270   -0.140920838286   -2.932040000000
 O   -2.707011114362    2.842531072726    0.000000000000
 C   -3.215419619657    3.965537771122    0.000000000000
 O   -4.548114353110    4.175738713855    0.000000000000
 H   -5.014957429755    3.322436295372    0.000000000000
 C   -2.504469381786    5.286238255438    0.000000000000
 H   -1.419834603515    5.138576048474    0.000000000000
 H   -2.806728834240    5.863487805763   -0.885110732141
 H   -2.806728834240    5.863487805763    0.885110732141
