18

 C    2.196199659638   -4.962494637899    0.000000000000
 H    1.111559659638   -4.814844637899    0.000000000000
 H    2.498459659638   -5.539744637899    0.885110000000
 H    2.498459659638   -5.539744637899   -0.885110000000
 C    2.907139659638   -3.641794637899    0.000000000000
 O    2.398729659638   -2.518784637899    0.000000000000
 O    4.239839659638   -3.851984637899    0.000000000000
 H    4.706669659638   -2.998674637899    0.000000000000
RB    0.205589659638   -0.215894637899    2.932040000000
RB    0.205589659638   -0.215894637899   -2.932040000000
 O   -2.980429205996    3.129635486196    0.000000000000
 C   -3.488837711291    4.252642184592    0.000000000000
 O   -4.821532444745    4.462843127325    0.000000000000
 H   -5.288375521389    3.609540708841    0.000000000000
 C   -2.777887473420    5.573342668907    0.000000000000
 H   -1.693252695149    5.425680461944    0.000000000000
 H   -3.080146925874    6.150592219233   -0.885110732141
 H   -3.080146925874    6.150592219233    0.885110732141
