18

 C    2.267599444006   -5.037468437512    0.000000000000
 H    1.182959444006   -4.889818437512    0.000000000000
 H    2.569859444006   -5.614718437512    0.885110000000
 H    2.569859444006   -5.614718437512   -0.885110000000
 C    2.978539444006   -3.716768437512    0.000000000000
 O    2.470129444006   -2.593758437512    0.000000000000
 O    4.311239444006   -3.926958437512    0.000000000000
 H    4.778069444006   -3.073648437512    0.000000000000
RB    0.276989444006   -0.290868437512    2.932040000000
RB    0.276989444006   -0.290868437512   -2.932040000000
 O   -3.253847297630    3.416739899665    0.000000000000
 C   -3.762255802926    4.539746598062    0.000000000000
 O   -5.094950536379    4.749947540794    0.000000000000
 H   -5.561793613023    3.896645122311    0.000000000000
 C   -3.051305565054    5.860447082377    0.000000000000
 H   -1.966670786783    5.712784875414    0.000000000000
 H   -3.353565017509    6.437696632703   -0.885110732141
 H   -3.353565017509    6.437696632703    0.885110732141
