18

 C    2.281879400879   -5.052463197435    0.000000000000
 H    1.197239400879   -4.904813197435    0.000000000000
 H    2.584139400879   -5.629713197435    0.885110000000
 H    2.584139400879   -5.629713197435   -0.885110000000
 C    2.992819400879   -3.731763197435    0.000000000000
 O    2.484409400879   -2.608753197435    0.000000000000
 O    4.325519400879   -3.941953197435    0.000000000000
 H    4.792349400879   -3.088643197435    0.000000000000
RB    0.291269400879   -0.305863197435    2.932040000000
RB    0.291269400879   -0.305863197435   -2.932040000000
 O   -3.308530915957    3.474160782359    0.000000000000
 C   -3.816939421252    4.597167480756    0.000000000000
 O   -5.149634154706    4.807368423488    0.000000000000
 H   -5.616477231350    3.954066005005    0.000000000000
 C   -3.105989183381    5.917867965071    0.000000000000
 H   -2.021354405110    5.770205758107    0.000000000000
 H   -3.408248635835    6.495117515397   -0.885110732141
 H   -3.408248635835    6.495117515397    0.885110732141
