18

 C    2.296159357753   -5.067457957357    0.000000000000
 H    1.211519357753   -4.919807957357    0.000000000000
 H    2.598419357753   -5.644707957357    0.885110000000
 H    2.598419357753   -5.644707957357   -0.885110000000
 C    3.007099357753   -3.746757957357    0.000000000000
 O    2.498689357753   -2.623747957357    0.000000000000
 O    4.339799357753   -3.956947957357    0.000000000000
 H    4.806629357753   -3.103637957357    0.000000000000
RB    0.305549357753   -0.320857957357    2.932040000000
RB    0.305549357753   -0.320857957357   -2.932040000000
 O   -3.363214534284    3.531581665053    0.000000000000
 C   -3.871623039579    4.654588363450    0.000000000000
 O   -5.204317773033    4.864789306182    0.000000000000
 H   -5.671160849677    4.011486887699    0.000000000000
 C   -3.160672801708    5.975288847765    0.000000000000
 H   -2.076038023437    5.827626640801    0.000000000000
 H   -3.462932254162    6.552538398091   -0.885110732141
 H   -3.462932254162    6.552538398091    0.885110732141
