18

 C    2.310439314626   -5.082452717280    0.000000000000
 H    1.225799314626   -4.934802717280    0.000000000000
 H    2.612699314626   -5.659702717280    0.885110000000
 H    2.612699314626   -5.659702717280   -0.885110000000
 C    3.021379314626   -3.761752717280    0.000000000000
 O    2.512969314626   -2.638742717280    0.000000000000
 O    4.354079314626   -3.971942717280    0.000000000000
 H    4.820909314626   -3.118632717280    0.000000000000
RB    0.319829314626   -0.335852717280    2.932040000000
RB    0.319829314626   -0.335852717280   -2.932040000000
 O   -3.417898152611    3.589002547747    0.000000000000
 C   -3.926306657906    4.712009246144    0.000000000000
 O   -5.259001391359    4.922210188876    0.000000000000
 H   -5.725844468004    4.068907770393    0.000000000000
 C   -3.215356420035    6.032709730459    0.000000000000
 H   -2.130721641764    5.885047523495    0.000000000000
 H   -3.517615872489    6.609959280784   -0.885110732141
 H   -3.517615872489    6.609959280784    0.885110732141
