18

 C    2.338999228373   -5.112442237125    0.000000000000
 H    1.254359228373   -4.964792237125    0.000000000000
 H    2.641259228373   -5.689692237125    0.885110000000
 H    2.641259228373   -5.689692237125   -0.885110000000
 C    3.049939228373   -3.791742237125    0.000000000000
 O    2.541529228373   -2.668732237125    0.000000000000
 O    4.382639228373   -4.001932237125    0.000000000000
 H    4.849469228373   -3.148622237125    0.000000000000
RB    0.348389228373   -0.365842237125    2.932040000000
RB    0.348389228373   -0.365842237125   -2.932040000000
 O   -3.527265389264    3.703844313135    0.000000000000
 C   -4.035673894560    4.826851011532    0.000000000000
 O   -5.368368628013    5.037051954264    0.000000000000
 H   -5.835211704657    4.183749535781    0.000000000000
 C   -3.324723656689    6.147551495847    0.000000000000
 H   -2.240088878418    5.999889288883    0.000000000000
 H   -3.626983109143    6.724801046172   -0.885110732141
 H   -3.626983109143    6.724801046172    0.885110732141
