18

 C    2.367559142121   -5.142431756970    0.000000000000
 H    1.282919142121   -4.994781756970    0.000000000000
 H    2.669819142121   -5.719681756970    0.885110000000
 H    2.669819142121   -5.719681756970   -0.885110000000
 C    3.078499142121   -3.821731756970    0.000000000000
 O    2.570089142121   -2.698721756970    0.000000000000
 O    4.411199142121   -4.031921756970    0.000000000000
 H    4.878029142121   -3.178611756970    0.000000000000
RB    0.376949142121   -0.395831756970    2.932040000000
RB    0.376949142121   -0.395831756970   -2.932040000000
 O   -3.636632625918    3.818686078523    0.000000000000
 C   -4.145041131214    4.941692776920    0.000000000000
 O   -5.477735864667    5.151893719652    0.000000000000
 H   -5.944578941311    4.298591301169    0.000000000000
 C   -3.434090893342    6.262393261235    0.000000000000
 H   -2.349456115071    6.114731054271    0.000000000000
 H   -3.736350345797    6.839642811560   -0.885110732141
 H   -3.736350345797    6.839642811560    0.885110732141
