18

 C    2.396119055868   -5.172421276816    0.000000000000
 H    1.311479055868   -5.024771276816    0.000000000000
 H    2.698379055868   -5.749671276816    0.885110000000
 H    2.698379055868   -5.749671276816   -0.885110000000
 C    3.107059055868   -3.851721276816    0.000000000000
 O    2.598649055868   -2.728711276816    0.000000000000
 O    4.439759055868   -4.061911276816    0.000000000000
 H    4.906589055868   -3.208601276816    0.000000000000
RB    0.405509055868   -0.425821276816    2.932040000000
RB    0.405509055868   -0.425821276816   -2.932040000000
 O   -3.745999862572    3.933527843911    0.000000000000
 C   -4.254408367867    5.056534542308    0.000000000000
 O   -5.587103101321    5.266735485040    0.000000000000
 H   -6.053946177965    4.413433066557    0.000000000000
 C   -3.543458129996    6.377235026623    0.000000000000
 H   -2.458823351725    6.229572819659    0.000000000000
 H   -3.845717582450    6.954484576948   -0.885110732141
 H   -3.845717582450    6.954484576948    0.885110732141
