18

 C    2.410399012741   -5.187416036738    0.000000000000
 H    1.325759012741   -5.039766036738    0.000000000000
 H    2.712659012741   -5.764666036738    0.885110000000
 H    2.712659012741   -5.764666036738   -0.885110000000
 C    3.121339012741   -3.866716036738    0.000000000000
 O    2.612929012741   -2.743706036738    0.000000000000
 O    4.454039012741   -4.076906036738    0.000000000000
 H    4.920869012741   -3.223596036738    0.000000000000
RB    0.419789012741   -0.440816036738    2.932040000000
RB    0.419789012741   -0.440816036738   -2.932040000000
 O   -3.800683480899    3.990948726605    0.000000000000
 C   -4.309091986194    5.113955425001    0.000000000000
 O   -5.641786719647    5.324156367734    0.000000000000
 H   -6.108629796292    4.470853949251    0.000000000000
 C   -3.598141748323    6.434655909317    0.000000000000
 H   -2.513506970052    6.286993702353    0.000000000000
 H   -3.900401200777    7.011905459642   -0.885110732141
 H   -3.900401200777    7.011905459642    0.885110732141
