18

 C    2.467518840236   -5.247395076429    0.000000000000
 H    1.382878840236   -5.099745076429    0.000000000000
 H    2.769778840236   -5.824645076429    0.885110000000
 H    2.769778840236   -5.824645076429   -0.885110000000
 C    3.178458840236   -3.926695076429    0.000000000000
 O    2.670048840236   -2.803685076429    0.000000000000
 O    4.511158840236   -4.136885076429    0.000000000000
 H    4.977988840236   -3.283575076429    0.000000000000
RB    0.476908840236   -0.500795076429    2.932040000000
RB    0.476908840236   -0.500795076429   -2.932040000000
 O   -4.019417954206    4.220632257381    0.000000000000
 C   -4.527826459502    5.343638955777    0.000000000000
 O   -5.860521192955    5.553839898510    0.000000000000
 H   -6.327364269599    4.700537480027    0.000000000000
 C   -3.816876221630    6.664339440093    0.000000000000
 H   -2.732241443359    6.516677233129    0.000000000000
 H   -4.119135674085    7.241588990418   -0.885110732141
 H   -4.119135674085    7.241588990418    0.885110732141
