26

 C    3.198659174115    1.578379050164    0.703524750994
 H    3.758699174115    2.340619050164    1.250904750994
 C    3.198659174115    1.578379050164   -0.707115249006
 H    3.758699174115    2.340619050164   -1.254495249006
 C    2.553829174115    0.543369050164    1.411814750994
 H    2.624529174115    0.495069050164    2.501204750994
 C    2.553829174115    0.543369050164   -1.415405249006
 H    2.624529174115    0.495069050164   -2.504795249006
 C    1.937729174115   -0.509180949836    0.704534750994
 H    1.559979174115   -1.367800949836    1.267534750994
 C    1.937729174115   -0.509180949836   -0.708125249006
 H    1.559979174115   -1.367800949836   -1.271125249006
 K    0.432719174115    2.017429050164   -0.001795249006
 K   -0.562080825885   -1.939290949836   -0.001795249006
 C   -3.134072982314   -1.617389354915   -0.701730869340
 H   -3.694106189798   -2.379633897066   -1.249109598720
 C   -3.134077302998   -1.617388332184    0.708904009151
 H   -3.694113857436   -2.379632071593    1.256280432031
 C   -2.489239890609   -0.582382185459   -1.410022205408
 H   -2.559937047622   -0.534084956975   -2.499422823781
 C   -2.489248516998   -0.582380445571    1.417197794578
 H   -2.559952321949   -0.534081876239    2.506597922064
 C   -1.873150722618    0.470175564025   -0.702744154412
 H   -1.495404451279    1.328792982633   -1.265739397157
 C   -1.873154947314    0.470176492550    0.709922044867
 H   -1.495412043458    1.328794650613    1.272918419305
