26

 C    3.312815533028    1.509428325319    0.706697655889
 H    3.872855533028    2.271668325319    1.254077655889
 C    3.312815533028    1.509428325319   -0.703942344111
 H    3.872855533028    2.271668325319   -1.251322344111
 C    2.667985533028    0.474418325319    1.414987655889
 H    2.738685533028    0.426118325319    2.504377655889
 C    2.667985533028    0.474418325319   -1.412232344111
 H    2.738685533028    0.426118325319   -2.501622344111
 C    2.051885533028   -0.578131674681    0.707707655889
 H    1.674135533028   -1.436751674681    1.270707655889
 C    2.051885533028   -0.578131674681   -0.704952344111
 H    1.674135533028   -1.436751674681   -1.267952344111
 K    0.546875533028    1.948478325319    0.001377655889
 K   -0.447924466972   -2.008241674681    0.001377655889
 C   -3.362210857512   -1.479593510608   -0.708071819488
 H   -3.922244064996   -2.241838052758   -1.255450548868
 C   -3.362215178196   -1.479592487876    0.702563059004
 H   -3.922251732635   -2.241836227285    1.249939481883
 C   -2.717377765807   -0.444586341152   -1.416363155556
 H   -2.788074922820   -0.396289112668   -2.505763773928
 C   -2.717386392196   -0.444584601263    1.410856844431
 H   -2.788090197147   -0.396286031931    2.500256971917
 C   -2.101288597817    0.607971408333   -0.709085104559
 H   -1.723542326478    1.466588826940   -1.272080347304
 C   -2.101292822513    0.607972336857    0.703581094719
 H   -1.723549918656    1.466590494921    1.266577469157
