26

 C    3.398432802213    1.457715281685    0.709077334560
 H    3.958472802213    2.219955281685    1.256457334560
 C    3.398432802213    1.457715281685   -0.701562665440
 H    3.958472802213    2.219955281685   -1.248942665440
 C    2.753602802213    0.422705281685    1.417367334560
 H    2.824302802213    0.374405281685    2.506757334560
 C    2.753602802213    0.422705281685   -1.409852665440
 H    2.824302802213    0.374405281685   -2.499242665440
 C    2.137502802213   -0.629844718315    0.710087334560
 H    1.759752802213   -1.488464718315    1.273087334560
 C    2.137502802213   -0.629844718315   -0.702572665440
 H    1.759752802213   -1.488464718315   -1.265572665440
 K    0.632492802213    1.896765281685    0.003757334560
 K   -0.362307197787   -2.059954718315    0.003757334560
 C   -3.533314263911   -1.376246627377   -0.712827532099
 H   -4.093347471395   -2.138491169528   -1.260206261478
 C   -3.533318584595   -1.376245604646    0.697807346393
 H   -4.093355139033   -2.138489344055    1.245183769272
 C   -2.888481172206   -0.341239457921   -1.421118868166
 H   -2.959178329219   -0.292942229437   -2.510519486539
 C   -2.888489798595   -0.341237718033    1.406101131820
 H   -2.959193603546   -0.292939148701    2.495501259306
 C   -2.272392004216    0.711318291563   -0.713840817170
 H   -1.894645732876    1.569935710171   -1.276836059915
 C   -2.272396228911    0.711319220088    0.698825382108
 H   -1.894653325055    1.569937378151    1.261821756546
