26

 C    3.541128250854    1.371526875629    0.713043465678
 H    4.101168250854    2.133766875629    1.260423465678
 C    3.541128250854    1.371526875629   -0.697596534322
 H    4.101168250854    2.133766875629   -1.244976534322
 C    2.896298250854    0.336516875629    1.421333465678
 H    2.966998250854    0.288216875629    2.510723465678
 C    2.896298250854    0.336516875629   -1.405886534322
 H    2.966998250854    0.288216875629   -2.495276534322
 C    2.280198250854   -0.716033124371    0.714053465678
 H    1.902448250854   -1.574653124371    1.277053465678
 C    2.280198250854   -0.716033124371   -0.698606534322
 H    1.902448250854   -1.574653124371   -1.261606534322
 K    0.775188250854    1.810576875629    0.007723465678
 K   -0.219611749146   -2.146143124371    0.007723465678
 C   -3.818486607909   -1.204001821993   -0.720753719783
 H   -4.378519815393   -1.966246364143   -1.268132449163
 C   -3.818490928593   -1.204000799261    0.689881158709
 H   -4.378527483031   -1.966244538671    1.237257581588
 C   -3.173653516204   -0.168994652537   -1.429045055851
 H   -3.244350673217   -0.120697424053   -2.518445674223
 C   -3.173662142593   -0.168992912648    1.398174944136
 H   -3.244365947544   -0.120694343317    2.487575071621
 C   -2.557564348214    0.883563096948   -0.721767004854
 H   -2.179818076874    1.742180515555   -1.284762247599
 C   -2.557568572910    0.883564025472    0.690899194424
 H   -2.179825669053    1.742182183536    1.253895568862
