26

 C    3.569667340582    1.354289194418    0.713836691902
 H    4.129707340582    2.116529194418    1.261216691902
 C    3.569667340582    1.354289194418   -0.696803308098
 H    4.129707340582    2.116529194418   -1.244183308098
 C    2.924837340582    0.319279194418    1.422126691902
 H    2.995537340582    0.270979194418    2.511516691902
 C    2.924837340582    0.319279194418   -1.405093308098
 H    2.995537340582    0.270979194418   -2.494483308098
 C    2.308737340582   -0.733270805582    0.714846691902
 H    1.930987340582   -1.591890805582    1.277846691902
 C    2.308737340582   -0.733270805582   -0.697813308098
 H    1.930987340582   -1.591890805582   -1.260813308098
 K    0.803727340582    1.793339194418    0.008516691902
 K   -0.191072659418   -2.163380805582    0.008516691902
 C   -3.875521076709   -1.169552860916   -0.722338957320
 H   -4.435554284192   -1.931797403066   -1.269717686700
 C   -3.875525397393   -1.169551838184    0.688295921172
 H   -4.435561951831   -1.931795577594    1.235672344051
 C   -3.230687985004   -0.134545691460   -1.430630293388
 H   -3.301385142017   -0.086248462976   -2.520030911760
 C   -3.230696611393   -0.134543951571    1.396589706599
 H   -3.301400416344   -0.086245382240    2.485989834084
 C   -2.614598817013    0.918012058025   -0.723352242391
 H   -2.236852545674    1.776629476632   -1.286347485136
 C   -2.614603041709    0.918012986549    0.689313956887
 H   -2.236860137853    1.776631144612    1.252310331325
