26

 C    3.655284609767    1.302576150785    0.716216370573
 H    4.215324609767    2.064816150785    1.263596370573
 C    3.655284609767    1.302576150785   -0.694423629427
 H    4.215324609767    2.064816150785   -1.241803629427
 C    3.010454609767    0.267566150785    1.424506370573
 H    3.081154609767    0.219266150785    2.513896370573
 C    3.010454609767    0.267566150785   -1.402713629427
 H    3.081154609767    0.219266150785   -2.492103629427
 C    2.394354609767   -0.784983849215    0.717226370573
 H    2.016604609767   -1.643603849215    1.280226370573
 C    2.394354609767   -0.784983849215   -0.695433629427
 H    2.016604609767   -1.643603849215   -1.258433629427
 K    0.889344609767    1.741626150785    0.010896370573
 K   -0.105455390233   -2.215093849215    0.010896370573
 C   -4.046624483108   -1.066205977685   -0.727094669931
 H   -4.606657690591   -1.828450519836   -1.274473399310
 C   -4.046628803791   -1.066204954954    0.683540208561
 H   -4.606665358230   -1.828448694363    1.230916631440
 C   -3.401791391402   -0.031198808230   -1.435386005998
 H   -3.472488548416    0.017098420255   -2.524786624371
 C   -3.401800017792   -0.031197068341    1.391833993988
 H   -3.472503822743    0.017101500991    2.481234121474
 C   -2.785702223412    1.021358941255   -0.728107955002
 H   -2.407955952073    1.879976359862   -1.291103197747
 C   -2.785706448108    1.021359869780    0.684558244276
 H   -2.407963544252    1.879978027843    1.247554618714
