26

 C    3.683823699495    1.285338469573    0.717009596797
 H    4.243863699495    2.047578469573    1.264389596797
 C    3.683823699495    1.285338469573   -0.693630403203
 H    4.243863699495    2.047578469573   -1.241010403203
 C    3.038993699495    0.250328469573    1.425299596797
 H    3.109693699495    0.202028469573    2.514689596797
 C    3.038993699495    0.250328469573   -1.401920403203
 H    3.109693699495    0.202028469573   -2.491310403203
 C    2.422893699495   -0.802221530427    0.718019596797
 H    2.045143699495   -1.660841530427    1.281019596797
 C    2.422893699495   -0.802221530427   -0.694640403203
 H    2.045143699495   -1.660841530427   -1.257640403203
 K    0.917883699495    1.724388469573    0.011689596797
 K   -0.076916300505   -2.232331530427    0.011689596797
 C   -4.103658951907   -1.031757016608   -0.728679907468
 H   -4.663692159391   -1.794001558759   -1.276058636847
 C   -4.103663272591   -1.031755993877    0.681954971024
 H   -4.663699827029   -1.793999733286    1.229331393904
 C   -3.458825860202    0.003250152847   -1.436971243535
 H   -3.529523017215    0.051547381331   -2.526371861908
 C   -3.458834486591    0.003251892736    1.390248756451
 H   -3.529538291542    0.051550462068    2.479648883937
 C   -2.842736692212    1.055807902332   -0.729693192539
 H   -2.464990420873    1.914425320939   -1.292688435284
 C   -2.842740916908    1.055808830856    0.682973006739
 H   -2.464998013051    1.914426988920    1.245969381177
