26

 C    3.712362789224    1.268100788362    0.717802823020
 H    4.272402789224    2.030340788362    1.265182823020
 C    3.712362789224    1.268100788362   -0.692837176980
 H    4.272402789224    2.030340788362   -1.240217176980
 C    3.067532789224    0.233090788362    1.426092823020
 H    3.138232789224    0.184790788362    2.515482823020
 C    3.067532789224    0.233090788362   -1.401127176980
 H    3.138232789224    0.184790788362   -2.490517176980
 C    2.451432789224   -0.819459211638    0.718812823020
 H    2.073682789224   -1.678079211638    1.281812823020
 C    2.451432789224   -0.819459211638   -0.693847176980
 H    2.073682789224   -1.678079211638   -1.256847176980
 K    0.946422789224    1.707150788362    0.012482823020
 K   -0.048377210776   -2.249569211638    0.012482823020
 C   -4.160693420707   -0.997308055531   -0.730265145004
 H   -4.720726628191   -1.759552597682   -1.277643874384
 C   -4.160697741391   -0.997307032800    0.680369733487
 H   -4.720734295829   -1.759550772209    1.227746156367
 C   -3.515860329002    0.037699113924   -1.438556481072
 H   -3.586557486015    0.085996342408   -2.527957099445
 C   -3.515868955391    0.037700853813    1.388663518914
 H   -3.586572760342    0.085999423145    2.478063646400
 C   -2.899771161011    1.090256863409   -0.731278430076
 H   -2.522024889672    1.948874282016   -1.294273672821
 C   -2.899775385707    1.090257791933    0.681387769203
 H   -2.522032481851    1.948875949997    1.244384143640
