26

 C    3.740901878952    1.250863107151    0.718596049244
 H    4.300941878952    2.013103107151    1.265976049244
 C    3.740901878952    1.250863107151   -0.692043950756
 H    4.300941878952    2.013103107151   -1.239423950756
 C    3.096071878952    0.215853107151    1.426886049244
 H    3.166771878952    0.167553107151    2.516276049244
 C    3.096071878952    0.215853107151   -1.400333950756
 H    3.166771878952    0.167553107151   -2.489723950756
 C    2.479971878952   -0.836696892849    0.719606049244
 H    2.102221878952   -1.695316892849    1.282606049244
 C    2.479971878952   -0.836696892849   -0.693053950756
 H    2.102221878952   -1.695316892849   -1.256053950756
 K    0.974961878952    1.689913107151    0.013276049244
 K   -0.019838121048   -2.266806892849    0.013276049244
 C   -4.217727889507   -0.962859094455   -0.731850382541
 H   -4.777761096990   -1.725103636605   -1.279229111921
 C   -4.217732210190   -0.962858071723    0.678784495950
 H   -4.777768764629   -1.725101811132    1.226160918830
 C   -3.572894797801    0.072148075001   -1.440141718609
 H   -3.643591954814    0.120445303485   -2.529542336982
 C   -3.572903424190    0.072149814890    1.387078281377
 H   -3.643607229141    0.120448384222    2.476478408863
 C   -2.956805629811    1.124705824486   -0.732863667613
 H   -2.579059358472    1.983323243093   -1.295858910358
 C   -2.956809854507    1.124706753010    0.679802531666
 H   -2.579066950651    1.983324911074    1.242798906104
