26

 C    3.883597327593    1.164674701095    0.722562180363
 H    4.443637327593    1.926914701095    1.269942180363
 C    3.883597327593    1.164674701095   -0.688077819637
 H    4.443637327593    1.926914701095   -1.235457819637
 C    3.238767327593    0.129664701095    1.430852180363
 H    3.309467327593    0.081364701095    2.520242180363
 C    3.238767327593    0.129664701095   -1.396367819637
 H    3.309467327593    0.081364701095   -2.485757819637
 C    2.622667327593   -0.922885298905    0.723572180363
 H    2.244917327593   -1.781505298905    1.286572180363
 C    2.622667327593   -0.922885298905   -0.689087819637
 H    2.244917327593   -1.781505298905   -1.252087819637
 K    1.117657327593    1.603724701095    0.017242180363
 K    0.122857327593   -2.352995298905    0.017242180363
 C   -4.502900233505   -0.790614289070   -0.739776570226
 H   -5.062933440988   -1.552858831221   -1.287155299606
 C   -4.502904554188   -0.790613266339    0.670858308266
 H   -5.062941108627   -1.552857005748    1.218234731145
 C   -3.858067141799    0.244392880385   -1.448067906293
 H   -3.928764298812    0.292690108870   -2.537468524666
 C   -3.858075768188    0.244394620274    1.379152093693
 H   -3.928779573140    0.292693189606    2.468552221179
 C   -3.241977973809    1.296950629870   -0.740789855297
 H   -2.864231702470    2.155568048477   -1.303785098042
 C   -3.241982198505    1.296951558395    0.671876343981
 H   -2.864239294649    2.155569716458    1.234872718419
