26

 C    3.969214596778    1.112961657461    0.724941859034
 H    4.529254596778    1.875201657461    1.272321859034
 C    3.969214596778    1.112961657461   -0.685698140966
 H    4.529254596778    1.875201657461   -1.233078140966
 C    3.324384596778    0.077951657461    1.433231859034
 H    3.395084596778    0.029651657461    2.522621859034
 C    3.324384596778    0.077951657461   -1.393988140966
 H    3.395084596778    0.029651657461   -2.483378140966
 C    2.708284596778   -0.974598342539    0.725951859034
 H    2.330534596778   -1.833218342539    1.288951859034
 C    2.708284596778   -0.974598342539   -0.686708140966
 H    2.330534596778   -1.833218342539   -1.249708140966
 K    1.203274596778    1.552011657461    0.019621859034
 K    0.208474596778   -2.404708342539    0.019621859034
 C   -4.674003639903   -0.687267405840   -0.744532282837
 H   -5.234036847387   -1.449511947990   -1.291911012216
 C   -4.674007960587   -0.687266383108    0.666102595655
 H   -5.234044515026   -1.449510122518    1.213479018535
 C   -4.029170548198    0.347739763616   -1.452823618904
 H   -4.099867705211    0.396036992100   -2.542224237277
 C   -4.029179174587    0.347741503505    1.374396381082
 H   -4.099882979538    0.396040072836    2.463796508568
 C   -3.413081380208    1.400297513101   -0.745545567908
 H   -3.035335108869    2.258914931708   -1.308540810653
 C   -3.413085604904    1.400298441625    0.667120631371
 H   -3.035342701048    2.258916599689    1.230117005808
