26

 C    3.997753686506    1.095723976250    0.725735085257
 H    4.557793686506    1.857963976250    1.273115085257
 C    3.997753686506    1.095723976250   -0.684904914743
 H    4.557793686506    1.857963976250   -1.232284914743
 C    3.352923686506    0.060713976250    1.434025085257
 H    3.423623686506    0.012413976250    2.523415085257
 C    3.352923686506    0.060713976250   -1.393194914743
 H    3.423623686506    0.012413976250   -2.482584914743
 C    2.736823686506   -0.991836023750    0.726745085257
 H    2.359073686506   -1.850456023750    1.289745085257
 C    2.736823686506   -0.991836023750   -0.685914914743
 H    2.359073686506   -1.850456023750   -1.248914914743
 K    1.231813686506    1.534773976250    0.020415085257
 K    0.237013686506   -2.421946023750    0.020415085257
 C   -4.731038108703   -0.652818444763   -0.746117520373
 H   -5.291071316187   -1.415062986913   -1.293496249753
 C   -4.731042429387   -0.652817422031    0.664517358118
 H   -5.291078983825   -1.415061161441    1.211893780998
 C   -4.086205016998    0.382188724693   -1.454408856441
 H   -4.156902174011    0.430485953177   -2.543809474814
 C   -4.086213643387    0.382190464582    1.372811143545
 H   -4.156917448338    0.430489033913    2.462211271031
 C   -3.470115849007    1.434746474178   -0.747130805445
 H   -3.092369577668    2.293363892785   -1.310126048190
 C   -3.470120073703    1.434747402702    0.665535393834
 H   -3.092377169847    2.293365560765    1.228531768271
