26

 C    4.054831865963    1.061248613828    0.727321537705
 H    4.614871865963    1.823488613828    1.274701537705
 C    4.054831865963    1.061248613828   -0.683318462295
 H    4.614871865963    1.823488613828   -1.230698462295
 C    3.410001865963    0.026238613828    1.435611537705
 H    3.480701865963   -0.022061386172    2.525001537705
 C    3.410001865963    0.026238613828   -1.391608462295
 H    3.480701865963   -0.022061386172   -2.480998462295
 C    2.793901865963   -1.026311386172    0.728331537705
 H    2.416151865963   -1.884931386172    1.291331537705
 C    2.793901865963   -1.026311386172   -0.684328462295
 H    2.416151865963   -1.884931386172   -1.247328462295
 K    1.288891865963    1.500298613828    0.022001537705
 K    0.294091865963   -2.456421386172    0.022001537705
 C   -4.845107046302   -0.583920522609   -0.749287995447
 H   -5.405140253786   -1.346165064760   -1.296666724827
 C   -4.845111366986   -0.583919499878    0.661346883045
 H   -5.405147921424   -1.346163239287    1.208723305924
 C   -4.200273954597    0.451086646847   -1.457579331515
 H   -4.270971111610    0.499383875331   -2.546979949888
 C   -4.200282580986    0.451088386735    1.369640668472
 H   -4.270986385937    0.499386956067    2.459040795957
 C   -3.584184786607    1.503644396331   -0.750301280518
 H   -3.206438515267    2.362261814939   -1.313296523263
 C   -3.584189011303    1.503645324856    0.662364918760
 H   -3.206446107446    2.362263482919    1.225361293198
