26

 C    4.140449135148    1.009535570194    0.729701216376
 H    4.700489135148    1.771775570194    1.277081216376
 C    4.140449135148    1.009535570194   -0.680938783624
 H    4.700489135148    1.771775570194   -1.228318783624
 C    3.495619135148   -0.025474429806    1.437991216376
 H    3.566319135148   -0.073774429806    2.527381216376
 C    3.495619135148   -0.025474429806   -1.389228783624
 H    3.566319135148   -0.073774429806   -2.478618783624
 C    2.879519135148   -1.078024429806    0.730711216376
 H    2.501769135148   -1.936644429806    1.293711216376
 C    2.879519135148   -1.078024429806   -0.681948783624
 H    2.501769135148   -1.936644429806   -1.244948783624
 K    1.374509135148    1.448585570194    0.024381216376
 K    0.379709135148   -2.508134429806    0.024381216376
 C   -5.016210452701   -0.480573639378   -0.754043708058
 H   -5.576243660185   -1.242818181529   -1.301422437438
 C   -5.016214773385   -0.480572616647    0.656591170434
 H   -5.576251327823   -1.242816356056    1.203967593313
 C   -4.371377360996    0.554433530077   -1.462335044125
 H   -4.442074518009    0.602730758561   -2.551735662498
 C   -4.371385987385    0.554435269966    1.364884955861
 H   -4.442089792336    0.602733839298    2.454285083347
 C   -3.755288193005    1.606991279562   -0.755056993129
 H   -3.377541921666    2.465608698169   -1.318052235874
 C   -3.755292417701    1.606992208086    0.657609206149
 H   -3.377549513845    2.465610366150    1.220605580587
