26

 C    4.226066404333    0.957822526560    0.732080895047
 H    4.786106404333    1.720062526560    1.279460895047
 C    4.226066404333    0.957822526560   -0.678559104953
 H    4.786106404333    1.720062526560   -1.225939104953
 C    3.581236404333   -0.077187473440    1.440370895047
 H    3.651936404333   -0.125487473440    2.529760895047
 C    3.581236404333   -0.077187473440   -1.386849104953
 H    3.651936404333   -0.125487473440   -2.476239104953
 C    2.965136404333   -1.129737473440    0.733090895047
 H    2.587386404333   -1.988357473440    1.296090895047
 C    2.965136404333   -1.129737473440   -0.679569104953
 H    2.587386404333   -1.988357473440   -1.242569104953
 K    1.460126404333    1.396872526560    0.026760895047
 K    0.465326404333   -2.559847473440    0.026760895047
 C   -5.187313859100   -0.377226756148   -0.758799420669
 H   -5.747347066584   -1.139471298298   -1.306178150048
 C   -5.187318179784   -0.377225733416    0.651835457823
 H   -5.747354734222   -1.139469472826    1.199211880703
 C   -4.542480767395    0.657780413308   -1.467090756736
 H   -4.613177924408    0.706077641792   -2.556491375109
 C   -4.542489393784    0.657782153197    1.360129243250
 H   -4.613193198735    0.706080722528    2.449529370736
 C   -3.926391599404    1.710338162793   -0.759812705740
 H   -3.548645328065    2.568955581400   -1.322807948485
 C   -3.926395824100    1.710339091317    0.652853493538
 H   -3.548652920244    2.568957249380    1.215849867976
