26

 C    4.283144583789    0.923347164138    0.733667347494
 H    4.843184583789    1.685587164138    1.281047347494
 C    4.283144583789    0.923347164138   -0.676972652506
 H    4.843184583789    1.685587164138   -1.224352652506
 C    3.638314583789   -0.111662835862    1.441957347494
 H    3.709014583789   -0.159962835862    2.531347347494
 C    3.638314583789   -0.111662835862   -1.385262652506
 H    3.709014583789   -0.159962835862   -2.474652652506
 C    3.022214583789   -1.164212835862    0.734677347494
 H    2.644464583789   -2.022832835862    1.297677347494
 C    3.022214583789   -1.164212835862   -0.677982652506
 H    2.644464583789   -2.022832835862   -1.240982652506
 K    1.517204583789    1.362397164138    0.028347347494
 K    0.522404583789   -2.594322835862    0.028347347494
 C   -5.301382796699   -0.308328833994   -0.761969895742
 H   -5.861416004183   -1.070573376145   -1.309348625122
 C   -5.301387117383   -0.308327811263    0.648664982749
 H   -5.861423671821   -1.070571550672    1.196041405629
 C   -4.656549704994    0.726678335462   -1.470261231810
 H   -4.727246862007    0.774975563946   -2.559661850183
 C   -4.656558331383    0.726680075350    1.356958768176
 H   -4.727262136334    0.774978644682    2.446358895662
 C   -4.040460537003    1.779236084946   -0.762983180814
 H   -3.662714265664    2.637853503554   -1.325978423559
 C   -4.040464761699    1.779237013471    0.649683018465
 H   -3.662721857843    2.637855171534    1.212679392903
