26

 C    4.311683673517    0.906109482927    0.734460573718
 H    4.871723673517    1.668349482927    1.281840573718
 C    4.311683673517    0.906109482927   -0.676179426282
 H    4.871723673517    1.668349482927   -1.223559426282
 C    3.666853673517   -0.128900517073    1.442750573718
 H    3.737553673517   -0.177200517073    2.532140573718
 C    3.666853673517   -0.128900517073   -1.384469426282
 H    3.737553673517   -0.177200517073   -2.473859426282
 C    3.050753673517   -1.181450517073    0.735470573718
 H    2.673003673517   -2.040070517073    1.298470573718
 C    3.050753673517   -1.181450517073   -0.677189426282
 H    2.673003673517   -2.040070517073   -1.240189426282
 K    1.545743673517    1.345159482927    0.029140573718
 K    0.550943673517   -2.611560517073    0.029140573718
 C   -5.358417265499   -0.273879872917   -0.763555133279
 H   -5.918450472982   -1.036124415068   -1.310933862659
 C   -5.358421586182   -0.273878850186    0.647079745213
 H   -5.918458140621   -1.036122589595    1.194456168092
 C   -4.713584173794    0.761127296538   -1.471846469347
 H   -4.784281330807    0.809424525023   -2.561247087720
 C   -4.713592800183    0.761129036427    1.355373530639
 H   -4.784296605134    0.809427605759    2.444773658125
 C   -4.097495005803    1.813685046023   -0.764568418350
 H   -3.719748734464    2.672302464630   -1.327563661096
 C   -4.097499230499    1.813685974548    0.648097780928
 H   -3.719756326643    2.672304132611    1.211094155366
