26

 C    4.368761852974    0.871634120504    0.736047026165
 H    4.928801852974    1.633874120504    1.283427026165
 C    4.368761852974    0.871634120504   -0.674592973835
 H    4.928801852974    1.633874120504   -1.221972973835
 C    3.723931852974   -0.163375879496    1.444337026165
 H    3.794631852974   -0.211675879496    2.533727026165
 C    3.723931852974   -0.163375879496   -1.382882973835
 H    3.794631852974   -0.211675879496   -2.472272973835
 C    3.107831852974   -1.215925879496    0.737057026165
 H    2.730081852974   -2.074545879496    1.300057026165
 C    3.107831852974   -1.215925879496   -0.675602973835
 H    2.730081852974   -2.074545879496   -1.238602973835
 K    1.602821852974    1.310684120504    0.030727026165
 K    0.608021852974   -2.646035879496    0.030727026165
 C   -5.472486203098   -0.204981950764   -0.766725608353
 H   -6.032519410582   -0.967226492914   -1.314104337733
 C   -5.472490523782   -0.204980928032    0.643909270139
 H   -6.032527078220   -0.967224667441    1.191285693018
 C   -4.827653111393    0.830025218692   -1.475016944421
 H   -4.898350268406    0.878322447176   -2.564417562793
 C   -4.827661737782    0.830026958581    1.352203055566
 H   -4.898365542733    0.878325527913    2.441603183051
 C   -4.211563943402    1.882582968177   -0.767738893424
 H   -3.833817672063    2.741200386784   -1.330734136169
 C   -4.211568168098    1.882583896701    0.644927305854
 H   -3.833825264242    2.741202054765    1.207923680292
