26

 C    4.511457301615    0.785445714448    0.740013157284
 H    5.071497301615    1.547685714448    1.287393157284
 C    4.511457301615    0.785445714448   -0.670626842716
 H    5.071497301615    1.547685714448   -1.218006842716
 C    3.866627301615   -0.249564285552    1.448303157284
 H    3.937327301615   -0.297864285552    2.537693157284
 C    3.866627301615   -0.249564285552   -1.378916842716
 H    3.937327301615   -0.297864285552   -2.468306842716
 C    3.250527301615   -1.302114285552    0.741023157284
 H    2.872777301615   -2.160734285552    1.304023157284
 C    3.250527301615   -1.302114285552   -0.671636842716
 H    2.872777301615   -2.160734285552   -1.234636842716
 K    1.745517301615    1.224495714448    0.034693157284
 K    0.750717301615   -2.732224285552    0.034693157284
 C   -5.757658547096   -0.032737145379   -0.774651796038
 H   -6.317691754580   -0.794981687530   -1.322030525417
 C   -5.757662867780   -0.032736122648    0.635983082454
 H   -6.317699422218   -0.794979862057    1.183359505334
 C   -5.112825455391    1.002270024076   -1.482943132105
 H   -5.183522612404    1.050567252561   -2.572343750478
 C   -5.112834081780    1.002271763965    1.344276867881
 H   -5.183537886731    1.050570333297    2.433676995367
 C   -4.496736287400    2.054827773561   -0.775665081109
 H   -4.118990016061    2.913445192168   -1.338660323854
 C   -4.496740512096    2.054828702086    0.637001118170
 H   -4.118997608240    2.913446860149    1.199997492607
