26

 C    4.654152750257    0.699257308392    0.743979288402
 H    5.214192750257    1.461497308392    1.291359288402
 C    4.654152750257    0.699257308392   -0.666660711598
 H    5.214192750257    1.461497308392   -1.214040711598
 C    4.009322750257   -0.335752691608    1.452269288402
 H    4.080022750257   -0.384052691608    2.541659288402
 C    4.009322750257   -0.335752691608   -1.374950711598
 H    4.080022750257   -0.384052691608   -2.464340711598
 C    3.393222750257   -1.388302691608    0.744989288402
 H    3.015472750257   -2.246922691608    1.307989288402
 C    3.393222750257   -1.388302691608   -0.667670711598
 H    3.015472750257   -2.246922691608   -1.230670711598
 K    1.888212750257    1.138307308392    0.038659288402
 K    0.893412750257   -2.818412691608    0.038659288402
 C   -6.042830891094    0.139507660005   -0.782577983722
 H   -6.602864098578   -0.622736882145   -1.329956713102
 C   -6.042835211778    0.139508682737    0.628056894770
 H   -6.602871766216   -0.622735056673    1.175433317649
 C   -5.397997799389    1.174514829461   -1.490869319790
 H   -5.468694956402    1.222812057945   -2.580269938162
 C   -5.398006425778    1.174516569350    1.336350680197
 H   -5.468710230729    1.222815138681    2.425750807682
 C   -4.781908631398    2.227072578946   -0.783591268793
 H   -4.404162360059    3.085689997553   -1.346586511538
 C   -4.781912856094    2.227073507470    0.629074930485
 H   -4.404169952238    3.085691665533    1.192071304923
