26

 C    4.739770019441    0.647544264759    0.746358967073
 H    5.299810019441    1.409784264759    1.293738967073
 C    4.739770019441    0.647544264759   -0.664281032927
 H    5.299810019441    1.409784264759   -1.211661032927
 C    4.094940019441   -0.387465735241    1.454648967073
 H    4.165640019441   -0.435765735241    2.544038967073
 C    4.094940019441   -0.387465735241   -1.372571032927
 H    4.165640019441   -0.435765735241   -2.461961032927
 C    3.478840019441   -1.440015735241    0.747368967073
 H    3.101090019441   -2.298635735241    1.310368967073
 C    3.478840019441   -1.440015735241   -0.665291032927
 H    3.101090019441   -2.298635735241   -1.228291032927
 K    1.973830019441    1.086594264759    0.041038967073
 K    0.979030019441   -2.870125735241    0.041038967073
 C   -6.213934297493    0.242854543236   -0.787333696333
 H   -6.773967504976   -0.519389998915   -1.334712425712
 C   -6.213938618177    0.242855565967    0.623301182159
 H   -6.773975172615   -0.519388173442    1.170677605038
 C   -5.569101205788    1.277861712691   -1.495625032400
 H   -5.639798362801    1.326158941176   -2.585025650773
 C   -5.569109832177    1.277863452580    1.331594967586
 H   -5.639813637128    1.326162021912    2.420995095072
 C   -4.953012037797    2.330419462176   -0.788346981404
 H   -4.575265766458    3.189036880783   -1.351342224149
 C   -4.953016262493    2.330420390701    0.624319217874
 H   -4.575273358637    3.189038548764    1.187315592312
