26

 C    4.825387288626    0.595831221125    0.748738645744
 H    5.385427288626    1.358071221125    1.296118645744
 C    4.825387288626    0.595831221125   -0.661901354256
 H    5.385427288626    1.358071221125   -1.209281354256
 C    4.180557288626   -0.439178778875    1.457028645744
 H    4.251257288626   -0.487478778875    2.546418645744
 C    4.180557288626   -0.439178778875   -1.370191354256
 H    4.251257288626   -0.487478778875   -2.459581354256
 C    3.564457288626   -1.491728778875    0.749748645744
 H    3.186707288626   -2.350348778875    1.312748645744
 C    3.564457288626   -1.491728778875   -0.662911354256
 H    3.186707288626   -2.350348778875   -1.225911354256
 K    2.059447288626    1.034881221125    0.043418645744
 K    1.064647288626   -2.921838778875    0.043418645744
 C   -6.385037703892    0.346201426466   -0.792089408943
 H   -6.945070911375   -0.416043115684   -1.339468138323
 C   -6.385042024575    0.346202449198    0.618545469548
 H   -6.945078579014   -0.416041290212    1.165921892428
 C   -5.740204612186    1.381208595922   -1.500380745011
 H   -5.810901769200    1.429505824406   -2.589781363384
 C   -5.740213238576    1.381210335811    1.326839254975
 H   -5.810917043527    1.429508905142    2.416239382461
 C   -5.124115444196    2.433766345407   -0.793102694015
 H   -4.746369172857    3.292383764014   -1.356097936760
 C   -5.124119668892    2.433767273931    0.619563505264
 H   -4.746376765036    3.292385431995    1.182559879702
