26

 C    4.853926378354    0.578593539914    0.749531871968
 H    5.413966378354    1.340833539914    1.296911871968
 C    4.853926378354    0.578593539914   -0.661108128032
 H    5.413966378354    1.340833539914   -1.208488128032
 C    4.209096378354   -0.456416460086    1.457821871968
 H    4.279796378354   -0.504716460086    2.547211871968
 C    4.209096378354   -0.456416460086   -1.369398128032
 H    4.279796378354   -0.504716460086   -2.458788128032
 C    3.592996378354   -1.508966460086    0.750541871968
 H    3.215246378354   -2.367586460086    1.313541871968
 C    3.592996378354   -1.508966460086   -0.662118128032
 H    3.215246378354   -2.367586460086   -1.225118128032
 K    2.087986378354    1.017643539914    0.044211871968
 K    1.093186378354   -2.939076460086    0.044211871968
 C   -6.442072172691    0.380650387543   -0.793674646480
 H   -7.002105380175   -0.381594154607   -1.341053375860
 C   -6.442076493375    0.380651410275    0.616960232012
 H   -7.002113047813   -0.381592329135    1.164336654891
 C   -5.797239080986    1.415657556999   -1.501965982548
 H   -5.867936237999    1.463954785483   -2.591366600921
 C   -5.797247707375    1.415659296888    1.325254017438
 H   -5.867951512326    1.463957866219    2.414654144924
 C   -5.181149912996    2.468215306484   -0.794687931551
 H   -4.803403641657    3.326832725091   -1.357683174297
 C   -5.181154137692    2.468216235008    0.617978267727
 H   -4.803411233835    3.326834393071    1.180974642165
