26

 C    4.882465468083    0.561355858703    0.750325098192
 H    5.442505468083    1.323595858703    1.297705098192
 C    4.882465468083    0.561355858703   -0.660314901808
 H    5.442505468083    1.323595858703   -1.207694901808
 C    4.237635468083   -0.473654141297    1.458615098192
 H    4.308335468083   -0.521954141297    2.548005098192
 C    4.237635468083   -0.473654141297   -1.368604901808
 H    4.308335468083   -0.521954141297   -2.457994901808
 C    3.621535468083   -1.526204141297    0.751335098192
 H    3.243785468083   -2.384824141297    1.314335098192
 C    3.621535468083   -1.526204141297   -0.661324901808
 H    3.243785468083   -2.384824141297   -1.224324901808
 K    2.116525468083    1.000405858703    0.045005098192
 K    1.121725468083   -2.956314141297    0.045005098192
 C   -6.499106641491    0.415099348620   -0.795259884017
 H   -7.059139848975   -0.347145193530   -1.342638613397
 C   -6.499110962175    0.415100371351    0.615374994475
 H   -7.059147516613   -0.347143368058    1.162751417354
 C   -5.854273549786    1.450106518076   -1.503551220085
 H   -5.924970706799    1.498403746560   -2.592951838458
 C   -5.854282176175    1.450108257964    1.323668779902
 H   -5.924985981126    1.498406827296    2.413068907387
 C   -5.238184381795    2.502664267560   -0.796273169088
 H   -4.860438110456    3.361281686168   -1.359268411833
 C   -5.238188606491    2.502665196085    0.616393030190
 H   -4.860445702635    3.361283354148    1.179389404628
