26

 C    4.939543647539    0.526880496280    0.751911550639
 H    5.499583647539    1.289120496280    1.299291550639
 C    4.939543647539    0.526880496280   -0.658728449361
 H    5.499583647539    1.289120496280   -1.206108449361
 C    4.294713647539   -0.508129503720    1.460201550639
 H    4.365413647539   -0.556429503720    2.549591550639
 C    4.294713647539   -0.508129503720   -1.367018449361
 H    4.365413647539   -0.556429503720   -2.456408449361
 C    3.678613647539   -1.560679503720    0.752921550639
 H    3.300863647539   -2.419299503720    1.315921550639
 C    3.678613647539   -1.560679503720   -0.659738449361
 H    3.300863647539   -2.419299503720   -1.222738449361
 K    2.173603647539    0.965930496280    0.046591550639
 K    1.178803647539   -2.990789503720    0.046591550639
 C   -6.613175579090    0.483997270774   -0.798430359091
 H   -7.173208786574   -0.278247271377   -1.345809088471
 C   -6.613179899774    0.483998293505    0.612204519401
 H   -7.173216454212   -0.278245445904    1.159580942280
 C   -5.968342487385    1.519004440229   -1.506721695159
 H   -6.039039644398    1.567301668714   -2.596122313531
 C   -5.968351113774    1.519006180118    1.320498304828
 H   -6.039054918725    1.567304749450    2.409898432314
 C   -5.352253319395    2.571562189714   -0.799443644162
 H   -4.974507048055    3.430179608321   -1.362438886907
 C   -5.352257544090    2.571563118239    0.613222555116
 H   -4.974514640234    3.430181276302    1.176218929554
