26

 C    4.968082737268    0.509642815069    0.752704776863
 H    5.528122737268    1.271882815069    1.300084776863
 C    4.968082737268    0.509642815069   -0.657935223137
 H    5.528122737268    1.271882815069   -1.205315223137
 C    4.323252737268   -0.525367184931    1.460994776863
 H    4.393952737268   -0.573667184931    2.550384776863
 C    4.323252737268   -0.525367184931   -1.366225223137
 H    4.393952737268   -0.573667184931   -2.455615223137
 C    3.707152737268   -1.577917184931    0.753714776863
 H    3.329402737268   -2.436537184931    1.316714776863
 C    3.707152737268   -1.577917184931   -0.658945223137
 H    3.329402737268   -2.436537184931   -1.221945223137
 K    2.202142737268    0.948692815069    0.047384776863
 K    1.207342737268   -3.008027184931    0.047384776863
 C   -6.670210047890    0.518446231851   -0.800015596628
 H   -7.230243255373   -0.243798310300   -1.347394326008
 C   -6.670214368574    0.518447254582    0.610619281864
 H   -7.230250923012   -0.243796484827    1.157995704743
 C   -6.025376956185    1.553453401306   -1.508306932695
 H   -6.096074113198    1.601750629790   -2.597707551068
 C   -6.025385582574    1.553455141195    1.318913067291
 H   -6.096089387525    1.601753710527    2.408313194777
 C   -5.409287788194    2.606011150791   -0.801028881699
 H   -5.031541516855    3.464628569398   -1.364024124444
 C   -5.409292012890    2.606012079315    0.611637317579
 H   -5.031549109034    3.464630237379    1.174633692017
