26

 C    4.996621826996    0.492405133858    0.753498003086
 H    5.556661826996    1.254645133858    1.300878003086
 C    4.996621826996    0.492405133858   -0.657141996914
 H    5.556661826996    1.254645133858   -1.204521996914
 C    4.351791826996   -0.542604866142    1.461788003086
 H    4.422491826996   -0.590904866142    2.551178003086
 C    4.351791826996   -0.542604866142   -1.365431996914
 H    4.422491826996   -0.590904866142   -2.454821996914
 C    3.735691826996   -1.595154866142    0.754508003086
 H    3.357941826996   -2.453774866142    1.317508003086
 C    3.735691826996   -1.595154866142   -0.658151996914
 H    3.357941826996   -2.453774866142   -1.221151996914
 K    2.230681826996    0.931455133858    0.048178003086
 K    1.235881826996   -3.025264866142    0.048178003086
 C   -6.727244516689    0.552895192928   -0.801600834165
 H   -7.287277724173   -0.209349349223   -1.348979563544
 C   -6.727248837373    0.552896215659    0.609034044327
 H   -7.287285391812   -0.209347523750    1.156410467206
 C   -6.082411424984    1.587902362383   -1.509892170232
 H   -6.153108581997    1.636199590867   -2.599292788605
 C   -6.082420051373    1.587904102272    1.317327829754
 H   -6.153123856324    1.636202671604    2.406727957240
 C   -5.466322256994    2.640460111868   -0.802614119236
 H   -5.088575985655    3.499077530475   -1.365609361981
 C   -5.466326481690    2.640461040392    0.610052080042
 H   -5.088583577833    3.499079198456    1.173048454480
