26

 C    5.025160916724    0.475167452647    0.754291229310
 H    5.585200916724    1.237407452647    1.301671229310
 C    5.025160916724    0.475167452647   -0.656348770690
 H    5.585200916724    1.237407452647   -1.203728770690
 C    4.380330916724   -0.559842547353    1.462581229310
 H    4.451030916724   -0.608142547353    2.551971229310
 C    4.380330916724   -0.559842547353   -1.364638770690
 H    4.451030916724   -0.608142547353   -2.454028770690
 C    3.764230916724   -1.612392547353    0.755301229310
 H    3.386480916724   -2.471012547353    1.318301229310
 C    3.764230916724   -1.612392547353   -0.657358770690
 H    3.386480916724   -2.471012547353   -1.220358770690
 K    2.259220916724    0.914217452647    0.048971229310
 K    1.264420916724   -3.042502547353    0.048971229310
 C   -6.784278985489    0.587344154004   -0.803186071702
 H   -7.344312192973   -0.174900388146   -1.350564801081
 C   -6.784283306173    0.587345176736    0.607448806790
 H   -7.344319860611   -0.174898562673    1.154825229669
 C   -6.139445893784    1.622351323460   -1.511477407769
 H   -6.210143050797    1.670648551944   -2.600878026142
 C   -6.139454520173    1.622353063349    1.315742592217
 H   -6.210158325124    1.670651632680    2.405142719703
 C   -5.523356725793    2.674909072945   -0.804199356773
 H   -5.145610454454    3.533526491552   -1.367194599518
 C   -5.523360950489    2.674910001469    0.608466842505
 H   -5.145618046633    3.533528159533    1.171463216943
