26

 C    5.053700006452    0.457929771435    0.755084455534
 H    5.613740006452    1.220169771435    1.302464455534
 C    5.053700006452    0.457929771435   -0.655555544466
 H    5.613740006452    1.220169771435   -1.202935544466
 C    4.408870006452   -0.577080228565    1.463374455534
 H    4.479570006452   -0.625380228565    2.552764455534
 C    4.408870006452   -0.577080228565   -1.363845544466
 H    4.479570006452   -0.625380228565   -2.453235544466
 C    3.792770006452   -1.629630228565    0.756094455534
 H    3.415020006452   -2.488250228565    1.319094455534
 C    3.792770006452   -1.629630228565   -0.656565544466
 H    3.415020006452   -2.488250228565   -1.219565544466
 K    2.287760006452    0.896979771435    0.049764455534
 K    1.292960006452   -3.059740228565    0.049764455534
 C   -6.841313454289    0.621793115081   -0.804771309239
 H   -7.401346661772   -0.140451427069   -1.352150038618
 C   -6.841317774972    0.621794137813    0.605863569253
 H   -7.401354329411   -0.140449601597    1.153239992133
 C   -6.196480362583    1.656800284537   -1.513062645306
 H   -6.267177519596    1.705097513021   -2.602463263679
 C   -6.196488988972    1.656802024426    1.314157354680
 H   -6.267192793924    1.705100593757    2.403557482166
 C   -5.580391194593    2.709358034022   -0.805784594310
 H   -5.202644923254    3.567975452629   -1.368779837055
 C   -5.580395419289    2.709358962546    0.606881604969
 H   -5.202652515433    3.567977120609    1.169877979406
