26

 C    5.082239096181    0.440692090224    0.755877681757
 H    5.642279096181    1.202932090224    1.303257681757
 C    5.082239096181    0.440692090224   -0.654762318243
 H    5.642279096181    1.202932090224   -1.202142318243
 C    4.437409096181   -0.594317909776    1.464167681757
 H    4.508109096181   -0.642617909776    2.553557681757
 C    4.437409096181   -0.594317909776   -1.363052318243
 H    4.508109096181   -0.642617909776   -2.452442318243
 C    3.821309096181   -1.646867909776    0.756887681757
 H    3.443559096181   -2.505487909776    1.319887681757
 C    3.821309096181   -1.646867909776   -0.655772318243
 H    3.443559096181   -2.505487909776   -1.218772318243
 K    2.316299096181    0.879742090224    0.050557681757
 K    1.321499096181   -3.076977909776    0.050557681757
 C   -6.898347923088    0.656242076158   -0.806356546775
 H   -7.458381130572   -0.106002465992   -1.353735276155
 C   -6.898352243772    0.656243098890    0.604278331716
 H   -7.458388798210   -0.106000640520    1.151654754596
 C   -6.253514831383    1.691249245614   -1.514647882843
 H   -6.324211988396    1.739546474098   -2.604048501216
 C   -6.253523457772    1.691250985503    1.312572117143
 H   -6.324227262723    1.739549554834    2.401972244629
 C   -5.637425663393    2.743806995099   -0.807369831847
 H   -5.259679392053    3.602424413706   -1.370365074592
 C   -5.637429888088    2.743807923623    0.605296367432
 H   -5.259686984232    3.602426081686    1.168292741869
