26

 C    5.167856365365    0.388979046590    0.758257360429
 H    5.727896365365    1.151219046590    1.305637360429
 C    5.167856365365    0.388979046590   -0.652382639571
 H    5.727896365365    1.151219046590   -1.199762639571
 C    4.523026365365   -0.646030953410    1.466547360429
 H    4.593726365365   -0.694330953410    2.555937360429
 C    4.523026365365   -0.646030953410   -1.360672639571
 H    4.593726365365   -0.694330953410   -2.450062639571
 C    3.906926365365   -1.698580953410    0.759267360429
 H    3.529176365365   -2.557200953410    1.322267360429
 C    3.906926365365   -1.698580953410   -0.653392639571
 H    3.529176365365   -2.557200953410   -1.216392639571
 K    2.401916365365    0.828029046590    0.052937360429
 K    1.407116365365   -3.128690953410    0.052937360429
 C   -7.069451329487    0.759588959389   -0.811112259386
 H   -7.629484536971   -0.002655582762   -1.358490988766
 C   -7.069455650171    0.759589982120    0.599522619106
 H   -7.629492204609   -0.002653757289    1.146899041985
 C   -6.424618237782    1.794596128844   -1.519403595454
 H   -6.495315394795    1.842893357329   -2.608804213826
 C   -6.424626864171    1.794597868733    1.307816404533
 H   -6.495330669122    1.842896438065    2.397216532018
 C   -5.808529069791    2.847153878329   -0.812125544457
 H   -5.430782798452    3.705771296936   -1.375120787202
 C   -5.808533294487    2.847154806854    0.600540654821
 H   -5.430790390631    3.705772964917    1.163537029259
