26

 C    5.310551814007    0.302790640534    0.762223491547
 H    5.870591814007    1.065030640534    1.309603491547
 C    5.310551814007    0.302790640534   -0.648416508453
 H    5.870591814007    1.065030640534   -1.195796508453
 C    4.665721814007   -0.732219359466    1.470513491547
 H    4.736421814007   -0.780519359466    2.559903491547
 C    4.665721814007   -0.732219359466   -1.356706508453
 H    4.736421814007   -0.780519359466   -2.446096508453
 C    4.049621814007   -1.784769359466    0.763233491547
 H    3.671871814007   -2.643389359466    1.326233491547
 C    4.049621814007   -1.784769359466   -0.649426508453
 H    3.671871814007   -2.643389359466   -1.212426508453
 K    2.544611814007    0.741840640534    0.056903491547
 K    1.549811814007   -3.214879359466    0.056903491547
 C   -7.354623673485    0.931833764773   -0.819038447071
 H   -7.914656880969    0.169589222623   -1.366417176450
 C   -7.354627994169    0.931834787504    0.591596431421
 H   -7.914664548607    0.169591048095    1.138972854301
 C   -6.709790581780    1.966840934229   -1.527329783138
 H   -6.780487738793    2.015138162713   -2.616730401511
 C   -6.709799208169    1.966842674117    1.299890216848
 H   -6.780503013120    2.015141243449    2.389290344334
 C   -6.093701413789    3.019398683713   -0.820051732142
 H   -5.715955142450    3.878016102321   -1.383046974887
 C   -6.093705638485    3.019399612238    0.592614467136
 H   -5.715962734629    3.878017770301    1.155610841574
