26

 C    5.453247262648    0.216602234478    0.766189622665
 H    6.013287262648    0.978842234478    1.313569622665
 C    5.453247262648    0.216602234478   -0.644450377335
 H    6.013287262648    0.978842234478   -1.191830377335
 C    4.808417262648   -0.818407765522    1.474479622665
 H    4.879117262648   -0.866707765522    2.563869622665
 C    4.808417262648   -0.818407765522   -1.352740377335
 H    4.879117262648   -0.866707765522   -2.442130377335
 C    4.192317262648   -1.870957765522    0.767199622665
 H    3.814567262648   -2.729577765522    1.330199622665
 C    4.192317262648   -1.870957765522   -0.645460377335
 H    3.814567262648   -2.729577765522   -1.208460377335
 K    2.687307262648    0.655652234478    0.060869622665
 K    1.692507262648   -3.301067765522    0.060869622665
 C   -7.639796017483    1.104078570157   -0.826964634755
 H   -8.199829224967    0.341834028007   -1.374343364135
 C   -7.639800338167    1.104079592889    0.583670243737
 H   -8.199836892605    0.341835853479    1.131046666616
 C   -6.994962925778    2.139085739613   -1.535255970823
 H   -7.065660082791    2.187382968097   -2.624656589195
 C   -6.994971552167    2.139087479502    1.291964029164
 H   -7.065675357118    2.187386048833    2.381364156649
 C   -6.378873757787    3.191643489098   -0.827977919826
 H   -6.001127486448    4.050260907705   -1.390973162571
 C   -6.378877982483    3.191644417622    0.584688279452
 H   -6.001135078627    4.050262575686    1.147684653890
