26

 C    5.481786352376    0.199364553267    0.766982848889
 H    6.041826352376    0.961604553267    1.314362848889
 C    5.481786352376    0.199364553267   -0.643657151111
 H    6.041826352376    0.961604553267   -1.191037151111
 C    4.836956352376   -0.835645446733    1.475272848889
 H    4.907656352376   -0.883945446733    2.564662848889
 C    4.836956352376   -0.835645446733   -1.351947151111
 H    4.907656352376   -0.883945446733   -2.441337151111
 C    4.220856352376   -1.888195446733    0.767992848889
 H    3.843106352376   -2.746815446733    1.330992848889
 C    4.220856352376   -1.888195446733   -0.644667151111
 H    3.843106352376   -2.746815446733   -1.207667151111
 K    2.715846352376    0.638414553267    0.061662848889
 K    1.721046352376   -3.318305446733    0.061662848889
 C   -7.696830486283    1.138527531234   -0.828549872292
 H   -8.256863693766    0.376282989084   -1.375928601672
 C   -7.696834806967    1.138528553966    0.582085006200
 H   -8.256871361405    0.376284814556    1.129461429079
 C   -7.051997394578    2.173534700690   -1.536841208360
 H   -7.122694551591    2.221831929174   -2.626241826732
 C   -7.052006020967    2.173536440579    1.290378791627
 H   -7.122709825918    2.221835009910    2.379778919113
 C   -6.435908226587    3.226092450175   -0.829563157363
 H   -6.058161955248    4.084709868782   -1.392558400108
 C   -6.435912451283    3.226093378699    0.583103041915
 H   -6.058169547427    4.084711536762    1.146099416353
