26

 C    5.538864531833    0.164889190845    0.768569301337
 H    6.098904531833    0.927129190845    1.315949301337
 C    5.538864531833    0.164889190845   -0.642070698663
 H    6.098904531833    0.927129190845   -1.189450698663
 C    4.894034531833   -0.870120809155    1.476859301337
 H    4.964734531833   -0.918420809155    2.566249301337
 C    4.894034531833   -0.870120809155   -1.350360698663
 H    4.964734531833   -0.918420809155   -2.439750698663
 C    4.277934531833   -1.922670809155    0.769579301337
 H    3.900184531833   -2.781290809155    1.332579301337
 C    4.277934531833   -1.922670809155   -0.643080698663
 H    3.900184531833   -2.781290809155   -1.206080698663
 K    2.772924531833    0.603939190845    0.063249301337
 K    1.778124531833   -3.352780809155    0.063249301337
 C   -7.810899423882    1.207425453388   -0.831720347366
 H   -8.370932631366    0.445180911237   -1.379099076745
 C   -7.810903744566    1.207426476119    0.578914531126
 H   -8.370940299004    0.445182736710    1.126290954005
 C   -7.166066332177    2.242432622844   -1.540011683433
 H   -7.236763489190    2.290729851328   -2.629412301806
 C   -7.166074958566    2.242434362732    1.287208316553
 H   -7.236778763517    2.290732932064    2.376608444039
 C   -6.549977164186    3.294990372328   -0.832733632437
 H   -6.172230892847    4.153607790936   -1.395728875182
 C   -6.549981388882    3.294991300853    0.579932566841
 H   -6.172238485026    4.153609458916    1.142928941279
