26

 C    5.595942711289    0.130413828422    0.770155753784
 H    6.155982711289    0.892653828422    1.317535753784
 C    5.595942711289    0.130413828422   -0.640484246216
 H    6.155982711289    0.892653828422   -1.187864246216
 C    4.951112711289   -0.904596171578    1.478445753784
 H    5.021812711289   -0.952896171578    2.567835753784
 C    4.951112711289   -0.904596171578   -1.348774246216
 H    5.021812711289   -0.952896171578   -2.438164246216
 C    4.335012711289   -1.957146171578    0.771165753784
 H    3.957262711289   -2.815766171578    1.334165753784
 C    4.335012711289   -1.957146171578   -0.641494246216
 H    3.957262711289   -2.815766171578   -1.204494246216
 K    2.830002711289    0.569463828422    0.064835753784
 K    1.835202711289   -3.387256171578    0.064835753784
 C   -7.924968361481    1.276323375542   -0.834890822440
 H   -8.485001568965    0.514078833391   -1.382269551819
 C   -7.924972682165    1.276324398273    0.575744056052
 H   -8.485009236603    0.514080658864    1.123120478932
 C   -7.280135269776    2.311330544997   -1.543182158507
 H   -7.350832426789    2.359627773482   -2.632582776880
 C   -7.280143896165    2.311332284886    1.284037841479
 H   -7.350847701116    2.359630854218    2.373437968965
 C   -6.664046101786    3.363888294482   -0.835904107511
 H   -6.286299830446    4.222505713089   -1.398899350256
 C   -6.664050326481    3.363889223007    0.576762091768
 H   -6.286307422625    4.222507381070    1.139758466205
