20

 C    1.056188383118   -2.961495745440    0.000000000000
 C   -0.199391616882   -2.130625745440    0.000000000000
 N   -1.365401616882   -2.775855745440    0.000000000000
 H   -2.239871616882   -2.261165745440    0.000000000000
 H   -1.405681616882   -3.789675745440    0.000000000000
 O   -0.160581616882   -0.854425745440    0.000000000000
 H    1.935528383118   -2.309285745440    0.000000000000
 H    1.081678383118   -3.611215745440    0.887550000000
 H    1.081678383118   -3.611215745440   -0.887550000000
NA    0.127768383118    0.679864254560    1.669050000000
NA    0.127768383118    0.679864254560   -1.669050000000
 O    0.061069490151    0.324926104837    0.000000000000
 C    0.099879794688    1.601136119004    0.000000000000
 N    1.265893841935    2.246360078976    0.000000000000
 H    2.140358594355    1.731668722068    0.000000000000
 H    1.306177600933    3.260170056665    0.000000000000
 C   -1.155692707074    2.432002498708    0.000000000000
 H   -2.035035632983    1.779802410734    0.000000000000
 H   -1.181187018465    3.081726175205   -0.887545628058
 H   -1.181187018465    3.081726175205    0.887545628058
