20

 C    1.049541354152   -2.996862976469    0.000000000000
 C   -0.206038645848   -2.165992976469    0.000000000000
 N   -1.372048645848   -2.811222976469    0.000000000000
 H   -2.246518645848   -2.296532976469    0.000000000000
 H   -1.412328645848   -3.825042976469    0.000000000000
 O   -0.167228645848   -0.889792976469    0.000000000000
 H    1.928881354152   -2.344652976469    0.000000000000
 H    1.075031354152   -3.646582976469    0.887550000000
 H    1.075031354152   -3.646582976469   -0.887550000000
NA    0.121121354152    0.644497023531    1.669050000000
NA    0.121121354152    0.644497023531   -1.669050000000
 O    0.072893386771    0.387838194664    0.000000000000
 C    0.111703691307    1.664048208831    0.000000000000
 N    1.277717738555    2.309272168803    0.000000000000
 H    2.152182490974    1.794580811894    0.000000000000
 H    1.318001497552    3.323082146491    0.000000000000
 C   -1.143868810454    2.494914588534    0.000000000000
 H   -2.023211736363    1.842714500561    0.000000000000
 H   -1.169363121845    3.144638265032   -0.887545628058
 H   -1.169363121845    3.144638265032    0.887545628058
