20

 C    1.029600267252   -3.102964669558    0.000000000000
 C   -0.225979732748   -2.272094669558    0.000000000000
 N   -1.391989732748   -2.917324669558    0.000000000000
 H   -2.266459732748   -2.402634669558    0.000000000000
 H   -1.432269732748   -3.931144669558    0.000000000000
 O   -0.187169732748   -0.995894669558    0.000000000000
 H    1.908940267252   -2.450754669558    0.000000000000
 H    1.055090267252   -3.752684669558    0.887550000000
 H    1.055090267252   -3.752684669558   -0.887550000000
NA    0.101180267252    0.538395330442    1.669050000000
NA    0.101180267252    0.538395330442   -1.669050000000
 O    0.108365076630    0.576574464144    0.000000000000
 C    0.147175381166    1.852784478312    0.000000000000
 N    1.313189428414    2.498008438284    0.000000000000
 H    2.187654180833    1.983317081375    0.000000000000
 H    1.353473187411    3.511818415972    0.000000000000
 C   -1.108397120595    2.683650858015    0.000000000000
 H   -1.987740046504    2.031450770041    0.000000000000
 H   -1.133891431986    3.333374534513   -0.887545628058
 H   -1.133891431986    3.333374534513    0.887545628058
