20

 C    1.022953238286   -3.138331900587    0.000000000000
 C   -0.232626761714   -2.307461900587    0.000000000000
 N   -1.398636761714   -2.952691900587    0.000000000000
 H   -2.273106761714   -2.438001900587    0.000000000000
 H   -1.438916761714   -3.966511900587    0.000000000000
 O   -0.193816761714   -1.031261900587    0.000000000000
 H    1.902293238286   -2.486121900587    0.000000000000
 H    1.048443238286   -3.788051900587    0.887550000000
 H    1.048443238286   -3.788051900587   -0.887550000000
NA    0.094533238286    0.503028099413    1.669050000000
NA    0.094533238286    0.503028099413   -1.669050000000
 O    0.120188973249    0.639486553971    0.000000000000
 C    0.158999277786    1.915696568139    0.000000000000
 N    1.325013325034    2.560920528111    0.000000000000
 H    2.199478077453    2.046229171202    0.000000000000
 H    1.365297084031    3.574730505799    0.000000000000
 C   -1.096573223975    2.746562947842    0.000000000000
 H   -1.975916149885    2.094362859868    0.000000000000
 H   -1.122067535367    3.396286624340   -0.887545628058
 H   -1.122067535367    3.396286624340    0.887545628058
