20

 C    1.009659180353   -3.209066362646    0.000000000000
 C   -0.245920819647   -2.378196362646    0.000000000000
 N   -1.411930819647   -3.023426362646    0.000000000000
 H   -2.286400819647   -2.508736362646    0.000000000000
 H   -1.452210819647   -4.037246362646    0.000000000000
 O   -0.207110819647   -1.101996362646    0.000000000000
 H    1.888999180353   -2.556856362646    0.000000000000
 H    1.035149180353   -3.858786362646    0.887550000000
 H    1.035149180353   -3.858786362646   -0.887550000000
NA    0.081239180353    0.432293637354    1.669050000000
NA    0.081239180353    0.432293637354   -1.669050000000
 O    0.143836766489    0.765310733625    0.000000000000
 C    0.182647071025    2.041520747793    0.000000000000
 N    1.348661118273    2.686744707764    0.000000000000
 H    2.223125870692    2.172053350856    0.000000000000
 H    1.388944877270    3.700554685453    0.000000000000
 C   -1.072925430736    2.872387127496    0.000000000000
 H   -1.952268356645    2.220187039522    0.000000000000
 H   -1.098419742127    3.522110803994   -0.887545628058
 H   -1.098419742127    3.522110803994    0.887545628058
