20

 C    0.989718093454   -3.315168055735    0.000000000000
 C   -0.265861906546   -2.484298055735    0.000000000000
 N   -1.431871906546   -3.129528055735    0.000000000000
 H   -2.306341906546   -2.614838055735    0.000000000000
 H   -1.472151906546   -4.143348055735    0.000000000000
 O   -0.227051906546   -1.208098055735    0.000000000000
 H    1.869058093454   -2.662958055735    0.000000000000
 H    1.015208093454   -3.964888055735    0.887550000000
 H    1.015208093454   -3.964888055735   -0.887550000000
NA    0.061298093454    0.326191944265    1.669050000000
NA    0.061298093454    0.326191944265   -1.669050000000
 O    0.179308456348    0.954047003106    0.000000000000
 C    0.218118760884    2.230257017274    0.000000000000
 N    1.384132808132    2.875480977245    0.000000000000
 H    2.258597560551    2.360789620337    0.000000000000
 H    1.424416567129    3.889290954934    0.000000000000
 C   -1.037453740877    3.061123396977    0.000000000000
 H   -1.916796666786    2.408923309003    0.000000000000
 H   -1.062948052268    3.710847073474   -0.887545628058
 H   -1.062948052268    3.710847073474    0.887545628058
