20

 C    0.969777006555   -3.421269748823    0.000000000000
 C   -0.285802993445   -2.590399748823    0.000000000000
 N   -1.451812993445   -3.235629748823    0.000000000000
 H   -2.326282993445   -2.720939748823    0.000000000000
 H   -1.492092993445   -4.249449748823    0.000000000000
 O   -0.246992993445   -1.314199748823    0.000000000000
 H    1.849117006555   -2.769059748823    0.000000000000
 H    0.995267006555   -4.070989748823    0.887550000000
 H    0.995267006555   -4.070989748823   -0.887550000000
NA    0.041357006555    0.220090251177    1.669050000000
NA    0.041357006555    0.220090251177   -1.669050000000
 O    0.214780146207    1.142783272587    0.000000000000
 C    0.253590450743    2.418993286754    0.000000000000
 N    1.419604497991    3.064217246726    0.000000000000
 H    2.294069250410    2.549525889818    0.000000000000
 H    1.459888256988    4.078027224415    0.000000000000
 C   -1.001982051018    3.249859666458    0.000000000000
 H   -1.881324976927    2.597659578484    0.000000000000
 H   -1.027476362409    3.899583342955   -0.887545628058
 H   -1.027476362409    3.899583342955    0.887545628058
