20

 C    0.956482948622   -3.492004210882    0.000000000000
 C   -0.299097051378   -2.661134210882    0.000000000000
 N   -1.465107051378   -3.306364210882    0.000000000000
 H   -2.339577051378   -2.791674210882    0.000000000000
 H   -1.505387051378   -4.320184210882    0.000000000000
 O   -0.260287051378   -1.384934210882    0.000000000000
 H    1.835822948622   -2.839794210882    0.000000000000
 H    0.981972948622   -4.141724210882    0.887550000000
 H    0.981972948622   -4.141724210882   -0.887550000000
NA    0.028062948622    0.149355789118    1.669050000000
NA    0.028062948622    0.149355789118   -1.669050000000
 O    0.238427939446    1.268607452241    0.000000000000
 C    0.277238243983    2.544817466408    0.000000000000
 N    1.443252291230    3.190041426380    0.000000000000
 H    2.317717043650    2.675350069471    0.000000000000
 H    1.483536050228    4.203851404068    0.000000000000
 C   -0.978334257779    3.375683846111    0.000000000000
 H   -1.857677183688    2.723483758138    0.000000000000
 H   -1.003828569170    4.025407522609   -0.887545628058
 H   -1.003828569170    4.025407522609    0.887545628058
