20

 C    0.896659687924   -3.810309290147    0.000000000000
 C   -0.358920312076   -2.979439290147    0.000000000000
 N   -1.524930312076   -3.624669290147    0.000000000000
 H   -2.399400312076   -3.109979290147    0.000000000000
 H   -1.565210312076   -4.638489290147    0.000000000000
 O   -0.320110312076   -1.703239290147    0.000000000000
 H    1.775999687924   -3.158099290147    0.000000000000
 H    0.922149687924   -4.460029290147    0.887550000000
 H    0.922149687924   -4.460029290147   -0.887550000000
NA   -0.031760312076   -0.168949290147    1.669050000000
NA   -0.031760312076   -0.168949290147   -1.669050000000
 O    0.344843009023    1.834816260683    0.000000000000
 C    0.383653313560    3.111026274851    0.000000000000
 N    1.549667360807    3.756250234822    0.000000000000
 H    2.424132113227    3.241558877914    0.000000000000
 H    1.589951119805    4.770060212511    0.000000000000
 C   -0.871919188201    3.941892654554    0.000000000000
 H   -1.751262114111    3.289692566580    0.000000000000
 H   -0.897413499593    4.591616331051   -0.887545628058
 H   -0.897413499593    4.591616331051    0.887545628058
