20

 C    0.890012658958   -3.845676521177    0.000000000000
 C   -0.365567341042   -3.014806521177    0.000000000000
 N   -1.531577341042   -3.660036521177    0.000000000000
 H   -2.406047341042   -3.145346521177    0.000000000000
 H   -1.571857341042   -4.673856521177    0.000000000000
 O   -0.326757341042   -1.738606521177    0.000000000000
 H    1.769352658958   -3.193466521177    0.000000000000
 H    0.915502658958   -4.495396521177    0.887550000000
 H    0.915502658958   -4.495396521177   -0.887550000000
NA   -0.038407341042   -0.204316521177    1.669050000000
NA   -0.038407341042   -0.204316521177   -1.669050000000
 O    0.356666905643    1.897728350510    0.000000000000
 C    0.395477210179    3.173938364677    0.000000000000
 N    1.561491257427    3.819162324649    0.000000000000
 H    2.435956009846    3.304470967741    0.000000000000
 H    1.601775016424    4.832972302338    0.000000000000
 C   -0.860095291582    4.004804744381    0.000000000000
 H   -1.739438217491    3.352604656407    0.000000000000
 H   -0.885589602973    4.654528420878   -0.887545628058
 H   -0.885589602973    4.654528420878    0.887545628058
