20

 C    0.863424543092   -3.987145445295    0.000000000000
 C   -0.392155456908   -3.156275445295    0.000000000000
 N   -1.558165456908   -3.801505445295    0.000000000000
 H   -2.432635456908   -3.286815445295    0.000000000000
 H   -1.598445456908   -4.815325445295    0.000000000000
 O   -0.353345456908   -1.880075445295    0.000000000000
 H    1.742764543092   -3.334935445295    0.000000000000
 H    0.888914543092   -4.636865445295    0.887550000000
 H    0.888914543092   -4.636865445295   -0.887550000000
NA   -0.064995456908   -0.345785445295    1.669050000000
NA   -0.064995456908   -0.345785445295   -1.669050000000
 O    0.403962492121    2.149376709818    0.000000000000
 C    0.442772796658    3.425586723985    0.000000000000
 N    1.608786843906    4.070810683957    0.000000000000
 H    2.483251596325    3.556119327048    0.000000000000
 H    1.649070602903    5.084620661645    0.000000000000
 C   -0.812799705103    4.256453103688    0.000000000000
 H   -1.692142631013    3.604253015715    0.000000000000
 H   -0.838294016495    4.906176780186   -0.887545628058
 H   -0.838294016495    4.906176780186    0.887545628058
