20

 C    0.836836427227   -4.128614369412    0.000000000000
 C   -0.418743572773   -3.297744369412    0.000000000000
 N   -1.584753572773   -3.942974369412    0.000000000000
 H   -2.459223572773   -3.428284369412    0.000000000000
 H   -1.625033572773   -4.956794369412    0.000000000000
 O   -0.379933572773   -2.021544369412    0.000000000000
 H    1.716176427227   -3.476404369412    0.000000000000
 H    0.862326427227   -4.778334369412    0.887550000000
 H    0.862326427227   -4.778334369412   -0.887550000000
NA   -0.091583572773   -0.487254369412    1.669050000000
NA   -0.091583572773   -0.487254369412   -1.669050000000
 O    0.451258078600    2.401025069125    0.000000000000
 C    0.490068383137    3.677235083293    0.000000000000
 N    1.656082430384    4.322459043264    0.000000000000
 H    2.530547182804    3.807767686356    0.000000000000
 H    1.696366189382    5.336269020953    0.000000000000
 C   -0.765504118624    4.508101462996    0.000000000000
 H   -1.644847044534    3.855901375022    0.000000000000
 H   -0.790998430016    5.157825139494   -0.887545628058
 H   -0.790998430016    5.157825139494    0.887545628058
