20

 C    0.823542369294   -4.199348831471    0.000000000000
 C   -0.432037630706   -3.368478831471    0.000000000000
 N   -1.598047630706   -4.013708831471    0.000000000000
 H   -2.472517630706   -3.499018831471    0.000000000000
 H   -1.638327630706   -5.027528831471    0.000000000000
 O   -0.393227630706   -2.092278831471    0.000000000000
 H    1.702882369294   -3.547138831471    0.000000000000
 H    0.849032369294   -4.849068831471    0.887550000000
 H    0.849032369294   -4.849068831471   -0.887550000000
NA   -0.104877630706   -0.557988831471    1.669050000000
NA   -0.104877630706   -0.557988831471   -1.669050000000
 O    0.474905871839    2.526849248779    0.000000000000
 C    0.513716176376    3.803059262947    0.000000000000
 N    1.679730223624    4.448283222918    0.000000000000
 H    2.554194976043    3.933591866010    0.000000000000
 H    1.720013982621    5.462093200607    0.000000000000
 C   -0.741856325385    4.633925642650    0.000000000000
 H   -1.621199251295    3.981725554676    0.000000000000
 H   -0.767350636777    5.283649319147   -0.887545628058
 H   -0.767350636777    5.283649319147    0.887545628058
