20

 C    0.816895340328   -4.234716062501    0.000000000000
 C   -0.438684659672   -3.403846062501    0.000000000000
 N   -1.604694659672   -4.049076062501    0.000000000000
 H   -2.479164659672   -3.534386062501    0.000000000000
 H   -1.644974659672   -5.062896062501    0.000000000000
 O   -0.399874659672   -2.127646062501    0.000000000000
 H    1.696235340328   -3.582506062501    0.000000000000
 H    0.842385340328   -4.884436062501    0.887550000000
 H    0.842385340328   -4.884436062501   -0.887550000000
NA   -0.111524659672   -0.593356062501    1.669050000000
NA   -0.111524659672   -0.593356062501   -1.669050000000
 O    0.486729768459    2.589761338606    0.000000000000
 C    0.525540072996    3.865971352774    0.000000000000
 N    1.691554120243    4.511195312745    0.000000000000
 H    2.566018872663    3.996503955837    0.000000000000
 H    1.731837879241    5.525005290434    0.000000000000
 C   -0.730032428765    4.696837732477    0.000000000000
 H   -1.609375354675    4.044637644503    0.000000000000
 H   -0.755526740157    5.346561408974   -0.887545628058
 H   -0.755526740157    5.346561408974    0.887545628058
