20

 C    0.803601282395   -4.305450524560    0.000000000000
 C   -0.451978717605   -3.474580524560    0.000000000000
 N   -1.617988717605   -4.119810524560    0.000000000000
 H   -2.492458717605   -3.605120524560    0.000000000000
 H   -1.658268717605   -5.133630524560    0.000000000000
 O   -0.413168717605   -2.198380524560    0.000000000000
 H    1.682941282395   -3.653240524560    0.000000000000
 H    0.829091282395   -4.955170524560    0.887550000000
 H    0.829091282395   -4.955170524560   -0.887550000000
NA   -0.124818717605   -0.664090524560    1.669050000000
NA   -0.124818717605   -0.664090524560   -1.669050000000
 O    0.510377561698    2.715585518260    0.000000000000
 C    0.549187866235    3.991795532427    0.000000000000
 N    1.715201913483    4.637019492399    0.000000000000
 H    2.589666665902    4.122328135491    0.000000000000
 H    1.755485672480    5.650829470088    0.000000000000
 C   -0.706384635526    4.822661912131    0.000000000000
 H   -1.585727561436    4.170461824157    0.000000000000
 H   -0.731878946918    5.472385588628   -0.887545628058
 H   -0.731878946918    5.472385588628    0.887545628058
