20

 C    0.790307224462   -4.376184986619    0.000000000000
 C   -0.465272775538   -3.545314986619    0.000000000000
 N   -1.631282775538   -4.190544986619    0.000000000000
 H   -2.505752775538   -3.675854986619    0.000000000000
 H   -1.671562775538   -5.204364986619    0.000000000000
 O   -0.426462775538   -2.269114986619    0.000000000000
 H    1.669647224462   -3.723974986619    0.000000000000
 H    0.815797224462   -5.025904986619    0.887550000000
 H    0.815797224462   -5.025904986619   -0.887550000000
NA   -0.138112775538   -0.734824986619    1.669050000000
NA   -0.138112775538   -0.734824986619   -1.669050000000
 O    0.534025354938    2.841409697914    0.000000000000
 C    0.572835659474    4.117619712081    0.000000000000
 N    1.738849706722    4.762843672053    0.000000000000
 H    2.613314459141    4.248152315145    0.000000000000
 H    1.779133465719    5.776653649742    0.000000000000
 C   -0.682736842287    4.948486091785    0.000000000000
 H   -1.562079768196    4.296286003811    0.000000000000
 H   -0.708231153678    5.598209768282   -0.887545628058
 H   -0.708231153678    5.598209768282    0.887545628058
