20

 C    0.777013166529   -4.446919448678    0.000000000000
 C   -0.478566833471   -3.616049448678    0.000000000000
 N   -1.644576833471   -4.261279448678    0.000000000000
 H   -2.519046833471   -3.746589448678    0.000000000000
 H   -1.684856833471   -5.275099448678    0.000000000000
 O   -0.439756833471   -2.339849448678    0.000000000000
 H    1.656353166529   -3.794709448678    0.000000000000
 H    0.802503166529   -5.096639448678    0.887550000000
 H    0.802503166529   -5.096639448678   -0.887550000000
NA   -0.151406833471   -0.805559448678    1.669050000000
NA   -0.151406833471   -0.805559448678   -1.669050000000
 O    0.557673148177    2.967233877568    0.000000000000
 C    0.596483452714    4.243443891735    0.000000000000
 N    1.762497499961    4.888667851707    0.000000000000
 H    2.636962252381    4.373976494798    0.000000000000
 H    1.802781258959    5.902477829395    0.000000000000
 C   -0.659089049047    5.074310271438    0.000000000000
 H   -1.538431974957    4.422110183465    0.000000000000
 H   -0.684583360439    5.724033947936   -0.887545628058
 H   -0.684583360439    5.724033947936    0.887545628058
