20

 C    0.770366137563   -4.482286679707    0.000000000000
 C   -0.485213862437   -3.651416679707    0.000000000000
 N   -1.651223862437   -4.296646679707    0.000000000000
 H   -2.525693862437   -3.781956679707    0.000000000000
 H   -1.691503862437   -5.310466679707    0.000000000000
 O   -0.446403862437   -2.375216679707    0.000000000000
 H    1.649706137563   -3.830076679707    0.000000000000
 H    0.795856137563   -5.132006679707    0.887550000000
 H    0.795856137563   -5.132006679707   -0.887550000000
NA   -0.158053862437   -0.840926679707    1.669050000000
NA   -0.158053862437   -0.840926679707   -1.669050000000
 O    0.569497044797    3.030145967394    0.000000000000
 C    0.608307349333    4.306355981562    0.000000000000
 N    1.774321396581    4.951579941534    0.000000000000
 H    2.648786149000    4.436888584625    0.000000000000
 H    1.814605155578    5.965389919222    0.000000000000
 C   -0.647265152428    5.137222361265    0.000000000000
 H   -1.526608078337    4.485022273292    0.000000000000
 H   -0.672759463819    5.786946037763   -0.887545628058
 H   -0.672759463819    5.786946037763    0.887545628058
