20

 C    0.750425050664   -4.588388372796    0.000000000000
 C   -0.505154949336   -3.757518372796    0.000000000000
 N   -1.671164949336   -4.402748372796    0.000000000000
 H   -2.545634949336   -3.888058372796    0.000000000000
 H   -1.711444949336   -5.416568372796    0.000000000000
 O   -0.466344949336   -2.481318372796    0.000000000000
 H    1.629765050664   -3.936178372796    0.000000000000
 H    0.775915050664   -5.238108372796    0.887550000000
 H    0.775915050664   -5.238108372796   -0.887550000000
NA   -0.177994949336   -0.947028372796    1.669050000000
NA   -0.177994949336   -0.947028372796   -1.669050000000
 O    0.604968734656    3.218882236875    0.000000000000
 C    0.643779039192    4.495092251043    0.000000000000
 N    1.809793086440    5.140316211014    0.000000000000
 H    2.684257838859    4.625624854106    0.000000000000
 H    1.850076845437    6.154126188703    0.000000000000
 C   -0.611793462569    5.325958630746    0.000000000000
 H   -1.491136388478    4.673758542772    0.000000000000
 H   -0.637287773960    5.975682307244   -0.887545628058
 H   -0.637287773960    5.975682307244    0.887545628058
