20

 C    0.743778021697   -4.623755603825    0.000000000000
 C   -0.511801978303   -3.792885603825    0.000000000000
 N   -1.677811978303   -4.438115603825    0.000000000000
 H   -2.552281978303   -3.923425603825    0.000000000000
 H   -1.718091978303   -5.451935603825    0.000000000000
 O   -0.472991978303   -2.516685603825    0.000000000000
 H    1.623118021697   -3.971545603825    0.000000000000
 H    0.769268021697   -5.273475603825    0.887550000000
 H    0.769268021697   -5.273475603825   -0.887550000000
NA   -0.184641978303   -0.982395603825    1.669050000000
NA   -0.184641978303   -0.982395603825   -1.669050000000
 O    0.616792631275    3.281794326702    0.000000000000
 C    0.655602935812    4.558004340870    0.000000000000
 N    1.821616983060    5.203228300841    0.000000000000
 H    2.696081735479    4.688536943933    0.000000000000
 H    1.861900742057    6.217038278530    0.000000000000
 C   -0.599969565949    5.388870720573    0.000000000000
 H   -1.479312491859    4.736670632599    0.000000000000
 H   -0.625463877341    6.038594397071   -0.887545628058
 H   -0.625463877341    6.038594397071    0.887545628058
