20

 C    0.737130992731   -4.659122834855    0.000000000000
 C   -0.518449007269   -3.828252834855    0.000000000000
 N   -1.684459007269   -4.473482834855    0.000000000000
 H   -2.558929007269   -3.958792834855    0.000000000000
 H   -1.724739007269   -5.487302834855    0.000000000000
 O   -0.479639007269   -2.552052834855    0.000000000000
 H    1.616470992731   -4.006912834855    0.000000000000
 H    0.762620992731   -5.308842834855    0.887550000000
 H    0.762620992731   -5.308842834855   -0.887550000000
NA   -0.191289007269   -1.017762834855    1.669050000000
NA   -0.191289007269   -1.017762834855   -1.669050000000
 O    0.628616527895    3.344706416529    0.000000000000
 C    0.667426832432    4.620916430697    0.000000000000
 N    1.833440879679    5.266140390668    0.000000000000
 H    2.707905632099    4.751449033760    0.000000000000
 H    1.873724638677    6.279950368357    0.000000000000
 C   -0.588145669329    5.451782810400    0.000000000000
 H   -1.467488595239    4.799582722426    0.000000000000
 H   -0.613639980721    6.101506486898   -0.887545628058
 H   -0.613639980721    6.101506486898    0.887545628058
