20

 C    0.723836934798   -4.729857296913    0.000000000000
 C   -0.531743065202   -3.898987296913    0.000000000000
 N   -1.697753065202   -4.544217296913    0.000000000000
 H   -2.572223065202   -4.029527296913    0.000000000000
 H   -1.738033065202   -5.558037296913    0.000000000000
 O   -0.492933065202   -2.622787296913    0.000000000000
 H    1.603176934798   -4.077647296913    0.000000000000
 H    0.749326934798   -5.379577296913    0.887550000000
 H    0.749326934798   -5.379577296913   -0.887550000000
NA   -0.204583065202   -1.088497296913    1.669050000000
NA   -0.204583065202   -1.088497296913   -1.669050000000
 O    0.652264321134    3.470530596183    0.000000000000
 C    0.691074625671    4.746740610351    0.000000000000
 N    1.857088672919    5.391964570322    0.000000000000
 H    2.731553425338    4.877273213414    0.000000000000
 H    1.897372431916    6.405774548011    0.000000000000
 C   -0.564497876090    5.577606990054    0.000000000000
 H   -1.443840802000    4.925406902080    0.000000000000
 H   -0.589992187482    6.227330666551   -0.887545628058
 H   -0.589992187482    6.227330666551    0.887545628058
