20

 C    0.717189905832   -4.765224527943    0.000000000000
 C   -0.538390094168   -3.934354527943    0.000000000000
 N   -1.704400094168   -4.579584527943    0.000000000000
 H   -2.578870094168   -4.064894527943    0.000000000000
 H   -1.744680094168   -5.593404527943    0.000000000000
 O   -0.499580094168   -2.658154527943    0.000000000000
 H    1.596529905832   -4.113014527943    0.000000000000
 H    0.742679905832   -5.414944527943    0.887550000000
 H    0.742679905832   -5.414944527943   -0.887550000000
NA   -0.211230094168   -1.123864527943    1.669050000000
NA   -0.211230094168   -1.123864527943   -1.669050000000
 O    0.664088217754    3.533442686010    0.000000000000
 C    0.702898522291    4.809652700178    0.000000000000
 N    1.868912569538    5.454876660149    0.000000000000
 H    2.743377321958    4.940185303241    0.000000000000
 H    1.909196328536    6.468686637838    0.000000000000
 C   -0.552673979470    5.640519079881    0.000000000000
 H   -1.432016905380    4.988318991907    0.000000000000
 H   -0.578168290862    6.290242756378   -0.887545628058
 H   -0.578168290862    6.290242756378    0.887545628058
