20

 C    0.690601789966   -4.906693452061    0.000000000000
 C   -0.564978210034   -4.075823452061    0.000000000000
 N   -1.730988210034   -4.721053452061    0.000000000000
 H   -2.605458210034   -4.206363452061    0.000000000000
 H   -1.771268210034   -5.734873452061    0.000000000000
 O   -0.526168210034   -2.799623452061    0.000000000000
 H    1.569941789966   -4.254483452061    0.000000000000
 H    0.716091789966   -5.556413452061    0.887550000000
 H    0.716091789966   -5.556413452061   -0.887550000000
NA   -0.237818210034   -1.265333452061    1.669050000000
NA   -0.237818210034   -1.265333452061   -1.669050000000
 O    0.711383804233    3.785091045318    0.000000000000
 C    0.750194108769    5.061301059485    0.000000000000
 N    1.916208156017    5.706525019457    0.000000000000
 H    2.790672908436    5.191833662548    0.000000000000
 H    1.956491915014    6.720334997145    0.000000000000
 C   -0.505378392992    5.892167439188    0.000000000000
 H   -1.384721318901    5.239967351215    0.000000000000
 H   -0.530872704383    6.541891115686   -0.887545628058
 H   -0.530872704383    6.541891115686    0.887545628058
