20

 C    0.683954761000   -4.942060683090    0.000000000000
 C   -0.571625239000   -4.111190683090    0.000000000000
 N   -1.737635239000   -4.756420683090    0.000000000000
 H   -2.612105239000   -4.241730683090    0.000000000000
 H   -1.777915239000   -5.770240683090    0.000000000000
 O   -0.532815239000   -2.834990683090    0.000000000000
 H    1.563294761000   -4.289850683090    0.000000000000
 H    0.709444761000   -5.591780683090    0.887550000000
 H    0.709444761000   -5.591780683090   -0.887550000000
NA   -0.244465239000   -1.300700683090    1.669050000000
NA   -0.244465239000   -1.300700683090   -1.669050000000
 O    0.723207700852    3.848003135144    0.000000000000
 C    0.762018005389    5.124213149312    0.000000000000
 N    1.928032052637    5.769437109284    0.000000000000
 H    2.802496805056    5.254745752375    0.000000000000
 H    1.968315811634    6.783247086972    0.000000000000
 C   -0.493554496372    5.955079529015    0.000000000000
 H   -1.372897422282    5.302879441042    0.000000000000
 H   -0.519048807764    6.604803205513   -0.887545628058
 H   -0.519048807764    6.604803205513    0.887545628058
