20

 C    0.677307732033   -4.977427914120    0.000000000000
 C   -0.578272267967   -4.146557914120    0.000000000000
 N   -1.744282267967   -4.791787914120    0.000000000000
 H   -2.618752267967   -4.277097914120    0.000000000000
 H   -1.784562267967   -5.805607914120    0.000000000000
 O   -0.539462267967   -2.870357914120    0.000000000000
 H    1.556647732033   -4.325217914120    0.000000000000
 H    0.702797732033   -5.627147914120    0.887550000000
 H    0.702797732033   -5.627147914120   -0.887550000000
NA   -0.251112267967   -1.336067914120    1.669050000000
NA   -0.251112267967   -1.336067914120   -1.669050000000
 O    0.735031597472    3.910915224971    0.000000000000
 C    0.773841902009    5.187125239139    0.000000000000
 N    1.939855949256    5.832349199111    0.000000000000
 H    2.814320701676    5.317657842202    0.000000000000
 H    1.980139708254    6.846159176799    0.000000000000
 C   -0.481730599752    6.017991618842    0.000000000000
 H   -1.361073525662    5.365791530868    0.000000000000
 H   -0.507224911144    6.667715295340   -0.887545628058
 H   -0.507224911144    6.667715295340    0.887545628058
