20

 C    0.670660703067   -5.012795145149    0.000000000000
 C   -0.584919296933   -4.181925145149    0.000000000000
 N   -1.750929296933   -4.827155145149    0.000000000000
 H   -2.625399296933   -4.312465145149    0.000000000000
 H   -1.791209296933   -5.840975145149    0.000000000000
 O   -0.546109296933   -2.905725145149    0.000000000000
 H    1.550000703067   -4.360585145149    0.000000000000
 H    0.696150703067   -5.662515145149    0.887550000000
 H    0.696150703067   -5.662515145149   -0.887550000000
NA   -0.257759296933   -1.371435145149    1.669050000000
NA   -0.257759296933   -1.371435145149   -1.669050000000
 O    0.746855494092    3.973827314798    0.000000000000
 C    0.785665798628    5.250037328966    0.000000000000
 N    1.951679845876    5.895261288938    0.000000000000
 H    2.826144598295    5.380569932029    0.000000000000
 H    1.991963604873    6.909071266626    0.000000000000
 C   -0.469906703133    6.080903708669    0.000000000000
 H   -1.349249629042    5.428703620695    0.000000000000
 H   -0.495401014524    6.730627385167   -0.887545628058
 H   -0.495401014524    6.730627385167    0.887545628058
