20

 C    0.637425558235   -5.189631300297    0.000000000000
 C   -0.618154441765   -4.358761300297    0.000000000000
 N   -1.784164441765   -5.003991300297    0.000000000000
 H   -2.658634441765   -4.489301300297    0.000000000000
 H   -1.824444441765   -6.017811300297    0.000000000000
 O   -0.579344441765   -3.082561300297    0.000000000000
 H    1.516765558235   -4.537421300297    0.000000000000
 H    0.662915558235   -5.839351300297    0.887550000000
 H    0.662915558235   -5.839351300297   -0.887550000000
NA   -0.290994441765   -1.548271300297    1.669050000000
NA   -0.290994441765   -1.548271300297   -1.669050000000
 O    0.805974977190    4.288387763933    0.000000000000
 C    0.844785281727    5.564597778101    0.000000000000
 N    2.010799328974    6.209821738072    0.000000000000
 H    2.885264081394    5.695130381164    0.000000000000
 H    2.051083087972    7.223631715761    0.000000000000
 C   -0.410787220034    6.395464157804    0.000000000000
 H   -1.290130145944    5.743264069830    0.000000000000
 H   -0.436281531426    7.045187834301   -0.887545628058
 H   -0.436281531426    7.045187834301    0.887545628058
