20

 C    0.604190413403   -5.366467455444    0.000000000000
 C   -0.651389586597   -4.535597455444    0.000000000000
 N   -1.817399586597   -5.180827455444    0.000000000000
 H   -2.691869586597   -4.666137455444    0.000000000000
 H   -1.857679586597   -6.194647455444    0.000000000000
 O   -0.612579586597   -3.259397455444    0.000000000000
 H    1.483530413403   -4.714257455444    0.000000000000
 H    0.629680413403   -6.016187455444    0.887550000000
 H    0.629680413403   -6.016187455444   -0.887550000000
NA   -0.324229586597   -1.725107455444    1.669050000000
NA   -0.324229586597   -1.725107455444   -1.669050000000
 O    0.865094460288    4.602948213068    0.000000000000
 C    0.903904764825    5.879158227235    0.000000000000
 N    2.069918812073    6.524382187207    0.000000000000
 H    2.944383564492    6.009690830298    0.000000000000
 H    2.110202571070    7.538192164895    0.000000000000
 C   -0.351667736936    6.710024606938    0.000000000000
 H   -1.231010662846    6.057824518965    0.000000000000
 H   -0.377162048327    7.359748283436   -0.887545628058
 H   -0.377162048327    7.359748283436    0.887545628058
