20

 C    0.597543384436   -5.401834686473    0.000000000000
 C   -0.658036615564   -4.570964686473    0.000000000000
 N   -1.824046615564   -5.216194686473    0.000000000000
 H   -2.698516615564   -4.701504686473    0.000000000000
 H   -1.864326615564   -6.230014686473    0.000000000000
 O   -0.619226615564   -3.294764686473    0.000000000000
 H    1.476883384436   -4.749624686473    0.000000000000
 H    0.623033384436   -6.051554686473    0.887550000000
 H    0.623033384436   -6.051554686473   -0.887550000000
NA   -0.330876615564   -1.760474686473    1.669050000000
NA   -0.330876615564   -1.760474686473   -1.669050000000
 O    0.876918356908    4.665860302895    0.000000000000
 C    0.915728661445    5.942070317062    0.000000000000
 N    2.081742708692    6.587294277034    0.000000000000
 H    2.956207461112    6.072602920125    0.000000000000
 H    2.122026467690    7.601104254722    0.000000000000
 C   -0.339843840316    6.772936696765    0.000000000000
 H   -1.219186766226    6.120736608792    0.000000000000
 H   -0.365338151708    7.422660373263   -0.887545628058
 H   -0.365338151708    7.422660373263    0.887545628058
