20

 C    0.590896355470   -5.437201917503    0.000000000000
 C   -0.664683644530   -4.606331917503    0.000000000000
 N   -1.830693644530   -5.251561917503    0.000000000000
 H   -2.705163644530   -4.736871917503    0.000000000000
 H   -1.870973644530   -6.265381917503    0.000000000000
 O   -0.625873644530   -3.330131917503    0.000000000000
 H    1.470236355470   -4.784991917503    0.000000000000
 H    0.616386355470   -6.086921917503    0.887550000000
 H    0.616386355470   -6.086921917503   -0.887550000000
NA   -0.337523644530   -1.795841917503    1.669050000000
NA   -0.337523644530   -1.795841917503   -1.669050000000
 O    0.888742253528    4.728772392721    0.000000000000
 C    0.927552558064    6.004982406889    0.000000000000
 N    2.093566605312    6.650206366861    0.000000000000
 H    2.968031357731    6.135515009952    0.000000000000
 H    2.133850364309    7.664016344549    0.000000000000
 C   -0.328019943697    6.835848786592    0.000000000000
 H   -1.207362869606    6.183648698619    0.000000000000
 H   -0.353514255088    7.485572463090   -0.887545628058
 H   -0.353514255088    7.485572463090    0.887545628058
