20

 C    0.584249326504   -5.472569148532    0.000000000000
 C   -0.671330673496   -4.641699148532    0.000000000000
 N   -1.837340673496   -5.286929148532    0.000000000000
 H   -2.711810673496   -4.772239148532    0.000000000000
 H   -1.877620673496   -6.300749148532    0.000000000000
 O   -0.632520673496   -3.365499148532    0.000000000000
 H    1.463589326504   -4.820359148532    0.000000000000
 H    0.609739326504   -6.122289148532    0.887550000000
 H    0.609739326504   -6.122289148532   -0.887550000000
NA   -0.344170673496   -1.831209148532    1.669050000000
NA   -0.344170673496   -1.831209148532   -1.669050000000
 O    0.900566150147    4.791684482548    0.000000000000
 C    0.939376454684    6.067894496716    0.000000000000
 N    2.105390501932    6.713118456688    0.000000000000
 H    2.979855254351    6.198427099779    0.000000000000
 H    2.145674260929    7.726928434376    0.000000000000
 C   -0.316196047077    6.898760876419    0.000000000000
 H   -1.195538972987    6.246560788445    0.000000000000
 H   -0.341690358468    7.548484552917   -0.887545628058
 H   -0.341690358468    7.548484552917    0.887545628058
