20

 C    0.564308239604   -5.578670841621    0.000000000000
 C   -0.691271760396   -4.747800841621    0.000000000000
 N   -1.857281760396   -5.393030841621    0.000000000000
 H   -2.731751760396   -4.878340841621    0.000000000000
 H   -1.897561760396   -6.406850841621    0.000000000000
 O   -0.652461760396   -3.471600841621    0.000000000000
 H    1.443648239604   -4.926460841621    0.000000000000
 H    0.589798239604   -6.228390841621    0.887550000000
 H    0.589798239604   -6.228390841621   -0.887550000000
NA   -0.364111760396   -1.937310841621    1.669050000000
NA   -0.364111760396   -1.937310841621   -1.669050000000
 O    0.936037840006    4.980420752029    0.000000000000
 C    0.974848144543    6.256630766197    0.000000000000
 N    2.140862191791    6.901854726168    0.000000000000
 H    3.015326944210    6.387163369260    0.000000000000
 H    2.181145950788    7.915664703857    0.000000000000
 C   -0.280724357218    7.087497145900    0.000000000000
 H   -1.160067283128    6.435297057926    0.000000000000
 H   -0.306218668609    7.737220822398   -0.887545628058
 H   -0.306218668609    7.737220822398    0.887545628058
