20

 C    0.557661210638   -5.614038072650    0.000000000000
 C   -0.697918789362   -4.783168072650    0.000000000000
 N   -1.863928789362   -5.428398072650    0.000000000000
 H   -2.738398789362   -4.913708072650    0.000000000000
 H   -1.904208789362   -6.442218072650    0.000000000000
 O   -0.659108789362   -3.506968072650    0.000000000000
 H    1.437001210638   -4.961828072650    0.000000000000
 H    0.583151210638   -6.263758072650    0.887550000000
 H    0.583151210638   -6.263758072650   -0.887550000000
NA   -0.370758789362   -1.972678072650    1.669050000000
NA   -0.370758789362   -1.972678072650   -1.669050000000
 O    0.947861736626    5.043332841856    0.000000000000
 C    0.986672041163    6.319542856024    0.000000000000
 N    2.152686088410    6.964766815995    0.000000000000
 H    3.027150840830    6.450075459087    0.000000000000
 H    2.192969847408    7.978576793684    0.000000000000
 C   -0.268900460598    7.150409235727    0.000000000000
 H   -1.148243386508    6.498209147753    0.000000000000
 H   -0.294394771990    7.800132912224   -0.887545628058
 H   -0.294394771990    7.800132912224    0.887545628058
