20

 C    0.551014181672   -5.649405303680    0.000000000000
 C   -0.704565818328   -4.818535303680    0.000000000000
 N   -1.870575818328   -5.463765303680    0.000000000000
 H   -2.745045818328   -4.949075303680    0.000000000000
 H   -1.910855818328   -6.477585303680    0.000000000000
 O   -0.665755818328   -3.542335303680    0.000000000000
 H    1.430354181672   -4.997195303680    0.000000000000
 H    0.576504181672   -6.299125303680    0.887550000000
 H    0.576504181672   -6.299125303680   -0.887550000000
NA   -0.377405818328   -2.008045303680    1.669050000000
NA   -0.377405818328   -2.008045303680   -1.669050000000
 O    0.959685633246    5.106244931683    0.000000000000
 C    0.998495937782    6.382454945851    0.000000000000
 N    2.164509985030    7.027678905822    0.000000000000
 H    3.038974737449    6.512987548914    0.000000000000
 H    2.204793744027    8.041488883511    0.000000000000
 C   -0.257076563979    7.213321325554    0.000000000000
 H   -1.136419489888    6.561121237580    0.000000000000
 H   -0.282570875370    7.863045002051   -0.887545628058
 H   -0.282570875370    7.863045002051    0.887545628058
