20

 C    0.504484978907   -5.896975920886    0.000000000000
 C   -0.751095021093   -5.066105920886    0.000000000000
 N   -1.917105021093   -5.711335920886    0.000000000000
 H   -2.791575021093   -5.196645920886    0.000000000000
 H   -1.957385021093   -6.725155920886    0.000000000000
 O   -0.712285021093   -3.789905920886    0.000000000000
 H    1.383824978907   -5.244765920886    0.000000000000
 H    0.529974978907   -6.546695920886    0.887550000000
 H    0.529974978907   -6.546695920886   -0.887550000000
NA   -0.423935021093   -2.255615920886    1.669050000000
NA   -0.423935021093   -2.255615920886   -1.669050000000
 O    1.042452909583    5.546629560471    0.000000000000
 C    1.081263214120    6.822839574639    0.000000000000
 N    2.247277261368    7.468063534611    0.000000000000
 H    3.121742013787    6.953372177702    0.000000000000
 H    2.287561020365    8.481873512299    0.000000000000
 C   -0.174309287641    7.653705954342    0.000000000000
 H   -1.053652213551    7.001505866369    0.000000000000
 H   -0.199803599032    8.303429630840   -0.887545628058
 H   -0.199803599032    8.303429630840    0.887545628058
