20

 C    0.491190920974   -5.967710382945    0.000000000000
 C   -0.764389079026   -5.136840382945    0.000000000000
 N   -1.930399079026   -5.782070382945    0.000000000000
 H   -2.804869079026   -5.267380382945    0.000000000000
 H   -1.970679079026   -6.795890382945    0.000000000000
 O   -0.725579079026   -3.860640382945    0.000000000000
 H    1.370530920974   -5.315500382945    0.000000000000
 H    0.516680920974   -6.617430382945    0.887550000000
 H    0.516680920974   -6.617430382945   -0.887550000000
NA   -0.437229079026   -2.326350382945    1.669050000000
NA   -0.437229079026   -2.326350382945   -1.669050000000
 O    1.066100702823    5.672453740125    0.000000000000
 C    1.104911007360    6.948663754293    0.000000000000
 N    2.270925054607    7.593887714265    0.000000000000
 H    3.145389807026    7.079196357356    0.000000000000
 H    2.311208813605    8.607697691953    0.000000000000
 C   -0.150661494402    7.779530133996    0.000000000000
 H   -1.030004420311    7.127330046022    0.000000000000
 H   -0.176155805793    8.429253810494   -0.887545628058
 H   -0.176155805793    8.429253810494    0.887545628058
