20

 C    0.484543892008   -6.003077613974    0.000000000000
 C   -0.771036107992   -5.172207613974    0.000000000000
 N   -1.937046107992   -5.817437613974    0.000000000000
 H   -2.811516107992   -5.302747613974    0.000000000000
 H   -1.977326107992   -6.831257613974    0.000000000000
 O   -0.732226107992   -3.896007613974    0.000000000000
 H    1.363883892008   -5.350867613974    0.000000000000
 H    0.510033892008   -6.652797613974    0.887550000000
 H    0.510033892008   -6.652797613974   -0.887550000000
NA   -0.443876107992   -2.361717613974    1.669050000000
NA   -0.443876107992   -2.361717613974   -1.669050000000
 O    1.077924599442    5.735365829952    0.000000000000
 C    1.116734903979    7.011575844120    0.000000000000
 N    2.282748951227    7.656799804091    0.000000000000
 H    3.157213703646    7.142108447183    0.000000000000
 H    2.323032710224    8.670609781780    0.000000000000
 C   -0.138837597782    7.842442223823    0.000000000000
 H   -1.018180523692    7.190242135849    0.000000000000
 H   -0.164331909173    8.492165900321   -0.887545628058
 H   -0.164331909173    8.492165900321    0.887545628058
