20

 C    0.477896863041   -6.038444845004    0.000000000000
 C   -0.777683136959   -5.207574845004    0.000000000000
 N   -1.943693136959   -5.852804845004    0.000000000000
 H   -2.818163136959   -5.338114845004    0.000000000000
 H   -1.983973136959   -6.866624845004    0.000000000000
 O   -0.738873136959   -3.931374845004    0.000000000000
 H    1.357236863041   -5.386234845004    0.000000000000
 H    0.503386863041   -6.688164845004    0.887550000000
 H    0.503386863041   -6.688164845004   -0.887550000000
NA   -0.450523136959   -2.397084845004    1.669050000000
NA   -0.450523136959   -2.397084845004   -1.669050000000
 O    1.089748496062    5.798277919779    0.000000000000
 C    1.128558800599    7.074487933947    0.000000000000
 N    2.294572847846    7.719711893918    0.000000000000
 H    3.169037600266    7.205020537010    0.000000000000
 H    2.334856606844    8.733521871607    0.000000000000
 C   -0.127013701162    7.905354313650    0.000000000000
 H   -1.006356627072    7.253154225676    0.000000000000
 H   -0.152508012554    8.555077990148   -0.887545628058
 H   -0.152508012554    8.555077990148    0.887545628058
