9

 C   -0.809513953697   -1.411209747600    0.000000000000
 H   -1.788440953697   -0.919421747600    0.000000000000
 H   -0.702367953697   -2.051018747600    0.888272000000
 H   -0.702367953697   -2.051018747600   -0.888272000000
 C    0.275113046303   -0.365625747600    0.000000000000
 O    0.114009046303    0.843925252400    0.000000000000
 O    1.517399046303   -0.942633747600    0.000000000000
 H    2.151935046303   -0.204070747600    0.000000000000
NA   -0.810448876980    1.225209330325    0.000000000000
