9

 C   -0.783911201874   -1.421769364620    0.000000000000
 H   -1.762838201874   -0.929981364620    0.000000000000
 H   -0.676765201874   -2.061578364620    0.888272000000
 H   -0.676765201874   -2.061578364620   -0.888272000000
 C    0.300715798126   -0.376185364620    0.000000000000
 O    0.139611798126    0.833365635380    0.000000000000
 O    1.543001798126   -0.953193364620    0.000000000000
 H    2.177537798126   -0.214630364620    0.000000000000
NA   -0.877291917486    1.252778121098    0.000000000000
