9

 C   -0.732705698229   -1.442888598660    0.000000000000
 H   -1.711632698229   -0.951100598660    0.000000000000
 H   -0.625559698229   -2.082697598660    0.888272000000
 H   -0.625559698229   -2.082697598660   -0.888272000000
 C    0.351921301771   -0.397304598660    0.000000000000
 O    0.190817301771    0.812246401340    0.000000000000
 O    1.594207301771   -0.974312598660    0.000000000000
 H    2.228743301771   -0.235749598660    0.000000000000
NA   -1.010977998497    1.307915702643    0.000000000000
