9

 C   -0.681500194583   -1.464007832700    0.000000000000
 H   -1.660427194583   -0.972219832700    0.000000000000
 H   -0.574354194583   -2.103816832700    0.888272000000
 H   -0.574354194583   -2.103816832700   -0.888272000000
 C    0.403126805417   -0.418423832700    0.000000000000
 O    0.242022805417    0.791127167300    0.000000000000
 O    1.645412805417   -0.995431832700    0.000000000000
 H    2.279948805417   -0.256868832700    0.000000000000
NA   -1.144664079508    1.363053284188    0.000000000000
