9

 C   -0.655897442761   -1.474567449721    0.000000000000
 H   -1.634824442761   -0.982779449721    0.000000000000
 H   -0.548751442761   -2.114376449721    0.888272000000
 H   -0.548751442761   -2.114376449721   -0.888272000000
 C    0.428729557239   -0.428983449721    0.000000000000
 O    0.267625557239    0.780567550279    0.000000000000
 O    1.671015557239   -1.005991449721    0.000000000000
 H    2.305551557239   -0.267428449721    0.000000000000
NA   -1.211507120013    1.390622074960    0.000000000000
