9

 C   -0.604691939115   -1.495686683761    0.000000000000
 H   -1.583618939115   -1.003898683761    0.000000000000
 H   -0.497545939115   -2.135495683761    0.888272000000
 H   -0.497545939115   -2.135495683761   -0.888272000000
 C    0.479935060885   -0.450102683761    0.000000000000
 O    0.318831060885    0.759448316239    0.000000000000
 O    1.722221060885   -1.027110683761    0.000000000000
 H    2.356757060885   -0.288547683761    0.000000000000
NA   -1.345193201025    1.445759656505    0.000000000000
