9

 C   -0.579089187293   -1.506246300781    0.000000000000
 H   -1.558016187293   -1.014458300781    0.000000000000
 H   -0.471943187293   -2.146055300781    0.888272000000
 H   -0.471943187293   -2.146055300781   -0.888272000000
 C    0.505537812707   -0.460662300781    0.000000000000
 O    0.344433812707    0.748888699219    0.000000000000
 O    1.747823812707   -1.037670300781    0.000000000000
 H    2.382359812707   -0.299107300781    0.000000000000
NA   -1.412036241530    1.473328447277    0.000000000000
