9

 C   -0.553486435470   -1.516805917801    0.000000000000
 H   -1.532413435470   -1.025017917801    0.000000000000
 H   -0.446340435470   -2.156614917801    0.888272000000
 H   -0.446340435470   -2.156614917801   -0.888272000000
 C    0.531140564530   -0.471221917801    0.000000000000
 O    0.370036564530    0.738329082199    0.000000000000
 O    1.773426564530   -1.048229917801    0.000000000000
 H    2.407962564530   -0.309666917801    0.000000000000
NA   -1.478879282036    1.500897238050    0.000000000000
