9

 C   -0.451075428179   -1.559044385881    0.000000000000
 H   -1.430002428179   -1.067256385881    0.000000000000
 H   -0.343929428179   -2.198853385881    0.888272000000
 H   -0.343929428179   -2.198853385881   -0.888272000000
 C    0.633551571821   -0.513460385881    0.000000000000
 O    0.472447571821    0.696090614119    0.000000000000
 O    1.875837571821   -1.090468385881    0.000000000000
 H    2.510373571821   -0.351905385881    0.000000000000
NA   -1.746251444058    1.611172401139    0.000000000000
