9

 C   -0.425472676356   -1.569604002902    0.000000000000
 H   -1.404399676356   -1.077816002902    0.000000000000
 H   -0.318326676356   -2.209413002902    0.888272000000
 H   -0.318326676356   -2.209413002902   -0.888272000000
 C    0.659154323644   -0.524020002902    0.000000000000
 O    0.498050323644    0.685530997098    0.000000000000
 O    1.901440323644   -1.101028002902    0.000000000000
 H    2.535976323644   -0.362465002902    0.000000000000
NA   -1.813094484564    1.638741191912    0.000000000000
