9

 C   -0.374267172711   -1.590723236942    0.000000000000
 H   -1.353194172711   -1.098935236942    0.000000000000
 H   -0.267121172711   -2.230532236942    0.888272000000
 H   -0.267121172711   -2.230532236942   -0.888272000000
 C    0.710359827289   -0.545139236942    0.000000000000
 O    0.549255827289    0.664411763058    0.000000000000
 O    1.952645827289   -1.122147236942    0.000000000000
 H    2.587181827289   -0.383584236942    0.000000000000
NA   -1.946780565575    1.693878773456    0.000000000000
