9

 C   -0.348664420888   -1.601282853962    0.000000000000
 H   -1.327591420888   -1.109494853962    0.000000000000
 H   -0.241518420888   -2.241091853962    0.888272000000
 H   -0.241518420888   -2.241091853962   -0.888272000000
 C    0.735962579112   -0.555698853962    0.000000000000
 O    0.574858579112    0.653852146038    0.000000000000
 O    1.978248579112   -1.132706853962    0.000000000000
 H    2.612784579112   -0.394143853962    0.000000000000
NA   -2.013623606080    1.721447564229    0.000000000000
