9

 C   -0.271856165420   -1.632961705022    0.000000000000
 H   -1.250783165420   -1.141173705022    0.000000000000
 H   -0.164710165420   -2.272770705022    0.888272000000
 H   -0.164710165420   -2.272770705022   -0.888272000000
 C    0.812770834580   -0.587377705022    0.000000000000
 O    0.651666834580    0.622173294978    0.000000000000
 O    2.055056834580   -1.164385705022    0.000000000000
 H    2.689592834580   -0.425822705022    0.000000000000
NA   -2.214152727597    1.804153936546    0.000000000000
