9

 C   -0.220650661774   -1.654080939063    0.000000000000
 H   -1.199577661774   -1.162292939063    0.000000000000
 H   -0.113504661774   -2.293889939063    0.888272000000
 H   -0.113504661774   -2.293889939063   -0.888272000000
 C    0.863976338226   -0.608496939063    0.000000000000
 O    0.702872338226    0.601054060937    0.000000000000
 O    2.106262338226   -1.185504939063    0.000000000000
 H    2.740798338226   -0.446941939063    0.000000000000
NA   -2.347838808608    1.859291518091    0.000000000000
