9

 C   -0.195047909952   -1.664640556083    0.000000000000
 H   -1.173974909952   -1.172852556083    0.000000000000
 H   -0.087901909952   -2.304449556083    0.888272000000
 H   -0.087901909952   -2.304449556083   -0.888272000000
 C    0.889579090048   -0.619056556083    0.000000000000
 O    0.728475090048    0.590494443917    0.000000000000
 O    2.131865090048   -1.196064556083    0.000000000000
 H    2.766401090048   -0.457501556083    0.000000000000
NA   -2.414681849114    1.886860308863    0.000000000000
