9

 C   -0.169445158129   -1.675200173103    0.000000000000
 H   -1.148372158129   -1.183412173103    0.000000000000
 H   -0.062299158129   -2.315009173103    0.888272000000
 H   -0.062299158129   -2.315009173103   -0.888272000000
 C    0.915181841871   -0.629616173103    0.000000000000
 O    0.754077841871    0.579934826897    0.000000000000
 O    2.157467841871   -1.206624173103    0.000000000000
 H    2.792003841871   -0.468061173103    0.000000000000
NA   -2.481524889619    1.914429099636    0.000000000000
