9

 C   -0.067034150838   -1.717438641183    0.000000000000
 H   -1.045961150838   -1.225650641183    0.000000000000
 H    0.040111849162   -2.357247641183    0.888272000000
 H    0.040111849162   -2.357247641183   -0.888272000000
 C    1.017592849162   -0.671854641183    0.000000000000
 O    0.856488849162    0.537696358817    0.000000000000
 O    2.259878849162   -1.248862641183    0.000000000000
 H    2.894414849162   -0.510299641183    0.000000000000
NA   -2.748897051642    2.024704262725    0.000000000000
