9

 C    0.035376856453   -1.759677109264    0.000000000000
 H   -0.943550143547   -1.267889109264    0.000000000000
 H    0.142522856453   -2.399486109264    0.888272000000
 H    0.142522856453   -2.399486109264   -0.888272000000
 C    1.120003856453   -0.714093109264    0.000000000000
 O    0.958899856453    0.495457890736    0.000000000000
 O    2.362289856453   -1.291101109264    0.000000000000
 H    2.996825856453   -0.552538109264    0.000000000000
NA   -3.016269213664    2.134979425815    0.000000000000
