9

 C    0.060979608276   -1.770236726284    0.000000000000
 H   -0.917947391724   -1.278448726284    0.000000000000
 H    0.168125608276   -2.410045726284    0.888272000000
 H    0.168125608276   -2.410045726284   -0.888272000000
 C    1.145606608276   -0.724652726284    0.000000000000
 O    0.984502608276    0.484898273716    0.000000000000
 O    2.387892608276   -1.301660726284    0.000000000000
 H    3.022428608276   -0.563097726284    0.000000000000
NA   -3.083112254169    2.162548216587    0.000000000000
