9

 C    0.163390615567   -1.812475194364    0.000000000000
 H   -0.815536384433   -1.320687194364    0.000000000000
 H    0.270536615567   -2.452284194364    0.888272000000
 H    0.270536615567   -2.452284194364   -0.888272000000
 C    1.248017615567   -0.766891194364    0.000000000000
 O    1.086913615567    0.442659805636    0.000000000000
 O    2.490303615567   -1.343899194364    0.000000000000
 H    3.124839615567   -0.605336194364    0.000000000000
NA   -3.350484416192    2.272823379677    0.000000000000
