9

 C    0.291404374680   -1.865273279465    0.000000000000
 H   -0.687522625320   -1.373485279465    0.000000000000
 H    0.398550374680   -2.505082279465    0.888272000000
 H    0.398550374680   -2.505082279465   -0.888272000000
 C    1.376031374680   -0.819689279465    0.000000000000
 O    1.214927374680    0.389861720535    0.000000000000
 O    2.618317374680   -1.396697279465    0.000000000000
 H    3.252853374680   -0.658134279465    0.000000000000
NA   -3.684699618719    2.410667333539    0.000000000000
