9

 C    0.342609878326   -1.886392513505    0.000000000000
 H   -0.636317121674   -1.394604513505    0.000000000000
 H    0.449755878326   -2.526201513505    0.888272000000
 H    0.449755878326   -2.526201513505   -0.888272000000
 C    1.427236878326   -0.840808513505    0.000000000000
 O    1.266132878326    0.368742486495    0.000000000000
 O    2.669522878326   -1.417816513505    0.000000000000
 H    3.304058878326   -0.679253513505    0.000000000000
NA   -3.818385699731    2.465804915084    0.000000000000
