9

 C    0.368212630148   -1.896952130525    0.000000000000
 H   -0.610714369852   -1.405164130525    0.000000000000
 H    0.475358630148   -2.536761130525    0.888272000000
 H    0.475358630148   -2.536761130525   -0.888272000000
 C    1.452839630148   -0.851368130525    0.000000000000
 O    1.291735630148    0.358182869475    0.000000000000
 O    2.695125630148   -1.428376130525    0.000000000000
 H    3.329661630148   -0.689813130525    0.000000000000
NA   -3.885228740236    2.493373705856    0.000000000000
