9

 C    0.445020885617   -1.928630981586    0.000000000000
 H   -0.533906114383   -1.436842981586    0.000000000000
 H    0.552166885617   -2.568439981586    0.888272000000
 H    0.552166885617   -2.568439981586   -0.888272000000
 C    1.529647885617   -0.883046981586    0.000000000000
 O    1.368543885617    0.326504018414    0.000000000000
 O    2.771933885617   -1.460054981586    0.000000000000
 H    3.406469885617   -0.721491981586    0.000000000000
NA   -4.085757861753    2.576080078174    0.000000000000
