9

 C    0.470623637439   -1.939190598606    0.000000000000
 H   -0.508303362561   -1.447402598606    0.000000000000
 H    0.577769637439   -2.578999598606    0.888272000000
 H    0.577769637439   -2.578999598606   -0.888272000000
 C    1.555250637439   -0.893606598606    0.000000000000
 O    1.394146637439    0.315944401394    0.000000000000
 O    2.797536637439   -1.470614598606    0.000000000000
 H    3.432072637439   -0.732051598606    0.000000000000
NA   -4.152600902258    2.603648868946    0.000000000000
