9

 C    0.496226389262   -1.949750215626    0.000000000000
 H   -0.482700610738   -1.457962215626    0.000000000000
 H    0.603372389262   -2.589559215626    0.888272000000
 H    0.603372389262   -2.589559215626   -0.888272000000
 C    1.580853389262   -0.904166215626    0.000000000000
 O    1.419749389262    0.305384784374    0.000000000000
 O    2.823139389262   -1.481174215626    0.000000000000
 H    3.457675389262   -0.742611215626    0.000000000000
NA   -4.219443942764    2.631217659719    0.000000000000
