9

 C    0.547431892908   -1.970869449666    0.000000000000
 H   -0.431495107092   -1.479081449666    0.000000000000
 H    0.654577892908   -2.610678449666    0.888272000000
 H    0.654577892908   -2.610678449666   -0.888272000000
 C    1.632058892908   -0.925285449666    0.000000000000
 O    1.470954892908    0.284265550334    0.000000000000
 O    2.874344892908   -1.502293449666    0.000000000000
 H    3.508880892908   -0.763730449666    0.000000000000
NA   -4.353130023775    2.686355241263    0.000000000000
