9

 C    0.624240148376   -2.002548300726    0.000000000000
 H   -0.354686851624   -1.510760300726    0.000000000000
 H    0.731386148376   -2.642357300726    0.888272000000
 H    0.731386148376   -2.642357300726   -0.888272000000
 C    1.708867148376   -0.956964300726    0.000000000000
 O    1.547763148376    0.252586699274    0.000000000000
 O    2.951153148376   -1.533972300726    0.000000000000
 H    3.585689148376   -0.795409300726    0.000000000000
NA   -4.553659145292    2.769061613581    0.000000000000
