9

 C    0.649842900198   -2.013107917746    0.000000000000
 H   -0.329084099802   -1.521319917746    0.000000000000
 H    0.756988900198   -2.652916917746    0.888272000000
 H    0.756988900198   -2.652916917746   -0.888272000000
 C    1.734469900198   -0.967523917746    0.000000000000
 O    1.573365900198    0.242027082254    0.000000000000
 O    2.976755900198   -1.544531917746    0.000000000000
 H    3.611291900198   -0.805968917746    0.000000000000
NA   -4.620502185797    2.796630404353    0.000000000000
