9

 C    0.675445652021   -2.023667534767    0.000000000000
 H   -0.303481347979   -1.531879534767    0.000000000000
 H    0.782591652021   -2.663476534767    0.888272000000
 H    0.782591652021   -2.663476534767   -0.888272000000
 C    1.760072652021   -0.978083534767    0.000000000000
 O    1.598968652021    0.231467465233    0.000000000000
 O    3.002358652021   -1.555091534767    0.000000000000
 H    3.636894652021   -0.816528534767    0.000000000000
NA   -4.687345226303    2.824199195125    0.000000000000
