9

 C    0.701048403844   -2.034227151787    0.000000000000
 H   -0.277878596156   -1.542439151787    0.000000000000
 H    0.808194403844   -2.674036151787    0.888272000000
 H    0.808194403844   -2.674036151787   -0.888272000000
 C    1.785675403844   -0.988643151787    0.000000000000
 O    1.624571403844    0.220907848213    0.000000000000
 O    3.027961403844   -1.565651151787    0.000000000000
 H    3.662497403844   -0.827088151787    0.000000000000
NA   -4.754188266809    2.851767985898    0.000000000000
