9

 C    0.752253907489   -2.055346385827    0.000000000000
 H   -0.226673092511   -1.563558385827    0.000000000000
 H    0.859399907489   -2.695155385827    0.888272000000
 H    0.859399907489   -2.695155385827   -0.888272000000
 C    1.836880907489   -1.009762385827    0.000000000000
 O    1.675776907489    0.199788614173    0.000000000000
 O    3.079166907489   -1.586770385827    0.000000000000
 H    3.713702907489   -0.848207385827    0.000000000000
NA   -4.887874347820    2.906905567443    0.000000000000
