9

 C    0.803459411135   -2.076465619867    0.000000000000
 H   -0.175467588865   -1.584677619867    0.000000000000
 H    0.910605411135   -2.716274619867    0.888272000000
 H    0.910605411135   -2.716274619867   -0.888272000000
 C    1.888086411135   -1.030881619867    0.000000000000
 O    1.726982411135    0.178669380133    0.000000000000
 O    3.130372411135   -1.607889619867    0.000000000000
 H    3.764908411135   -0.869326619867    0.000000000000
NA   -5.021560428831    2.962043148987    0.000000000000
