9

 C    0.829062162958   -2.087025236887    0.000000000000
 H   -0.149864837042   -1.595237236887    0.000000000000
 H    0.936208162958   -2.726834236887    0.888272000000
 H    0.936208162958   -2.726834236887   -0.888272000000
 C    1.913689162958   -1.041441236887    0.000000000000
 O    1.752585162958    0.168109763113    0.000000000000
 O    3.155975162958   -1.618449236887    0.000000000000
 H    3.790511162958   -0.879886236887    0.000000000000
NA   -5.088403469336    2.989611939760    0.000000000000
