9

 C    0.854664914780   -2.097584853907    0.000000000000
 H   -0.124262085220   -1.605796853907    0.000000000000
 H    0.961810914780   -2.737393853907    0.888272000000
 H    0.961810914780   -2.737393853907   -0.888272000000
 C    1.939291914780   -1.052000853907    0.000000000000
 O    1.778187914780    0.157550146093    0.000000000000
 O    3.181577914780   -1.629008853907    0.000000000000
 H    3.816113914780   -0.890445853907    0.000000000000
NA   -5.155246509842    3.017180730532    0.000000000000
