9

 C    0.880267666603   -2.108144470927    0.000000000000
 H   -0.098659333397   -1.616356470927    0.000000000000
 H    0.987413666603   -2.747953470927    0.888272000000
 H    0.987413666603   -2.747953470927   -0.888272000000
 C    1.964894666603   -1.062560470927    0.000000000000
 O    1.803790666603    0.146990529073    0.000000000000
 O    3.207180666603   -1.639568470927    0.000000000000
 H    3.841716666603   -0.901005470927    0.000000000000
NA   -5.222089550348    3.044749521305    0.000000000000
