9

 C    0.957075922071   -2.139823321988    0.000000000000
 H   -0.021851077929   -1.648035321988    0.000000000000
 H    1.064221922071   -2.779632321988    0.888272000000
 H    1.064221922071   -2.779632321988   -0.888272000000
 C    2.041702922071   -1.094239321988    0.000000000000
 O    1.880598922071    0.115311678012    0.000000000000
 O    3.283988922071   -1.671247321988    0.000000000000
 H    3.918524922071   -0.932684321988    0.000000000000
NA   -5.422618671864    3.127455893622    0.000000000000
