9

 C    1.085089681185   -2.192621407088    0.000000000000
 H    0.106162681185   -1.700833407088    0.000000000000
 H    1.192235681185   -2.832430407088    0.888272000000
 H    1.192235681185   -2.832430407088   -0.888272000000
 C    2.169716681185   -1.147037407088    0.000000000000
 O    2.008612681185    0.062513592912    0.000000000000
 O    3.412002681185   -1.724045407088    0.000000000000
 H    4.046538681185   -0.985482407088    0.000000000000
NA   -5.756833874392    3.265299847484    0.000000000000
