9

 C    1.238706192121   -2.255979109209    0.000000000000
 H    0.259779192121   -1.764191109209    0.000000000000
 H    1.345852192121   -2.895788109209    0.888272000000
 H    1.345852192121   -2.895788109209   -0.888272000000
 C    2.323333192121   -1.210395109209    0.000000000000
 O    2.162229192121   -0.000844109209    0.000000000000
 O    3.565619192121   -1.787403109209    0.000000000000
 H    4.200155192121   -1.048840109209    0.000000000000
NA   -6.157892117425    3.430712592119    0.000000000000
