9

 C    1.289911695767   -2.277098343249    0.000000000000
 H    0.310984695767   -1.785310343249    0.000000000000
 H    1.397057695767   -2.916907343249    0.888272000000
 H    1.397057695767   -2.916907343249   -0.888272000000
 C    2.374538695767   -1.231514343249    0.000000000000
 O    2.213434695767   -0.021963343249    0.000000000000
 O    3.616824695767   -1.808522343249    0.000000000000
 H    4.251360695767   -1.069959343249    0.000000000000
NA   -6.291578198437    3.485850173663    0.000000000000
