9

 C    1.315514447589   -2.287657960269    0.000000000000
 H    0.336587447589   -1.795869960269    0.000000000000
 H    1.422660447589   -2.927466960269    0.888272000000
 H    1.422660447589   -2.927466960269   -0.888272000000
 C    2.400141447589   -1.242073960269    0.000000000000
 O    2.239037447589   -0.032522960269    0.000000000000
 O    3.642427447589   -1.819081960269    0.000000000000
 H    4.276963447589   -1.080518960269    0.000000000000
NA   -6.358421238942    3.513418964436    0.000000000000
