9

 C    1.341117199412   -2.298217577290    0.000000000000
 H    0.362190199412   -1.806429577290    0.000000000000
 H    1.448263199412   -2.938026577290    0.888272000000
 H    1.448263199412   -2.938026577290   -0.888272000000
 C    2.425744199412   -1.252633577290    0.000000000000
 O    2.264640199412   -0.043082577290    0.000000000000
 O    3.668030199412   -1.829641577290    0.000000000000
 H    4.302566199412   -1.091078577290    0.000000000000
NA   -6.425264279448    3.540987755208    0.000000000000
