9

 C    1.392322703058   -2.319336811330    0.000000000000
 H    0.413395703058   -1.827548811330    0.000000000000
 H    1.499468703058   -2.959145811330    0.888272000000
 H    1.499468703058   -2.959145811330   -0.888272000000
 C    2.476949703058   -1.273752811330    0.000000000000
 O    2.315845703058   -0.064201811330    0.000000000000
 O    3.719235703058   -1.850760811330    0.000000000000
 H    4.353771703058   -1.112197811330    0.000000000000
NA   -6.558950360459    3.596125336753    0.000000000000
