9

 C    1.469130958526   -2.351015662390    0.000000000000
 H    0.490203958526   -1.859227662390    0.000000000000
 H    1.576276958526   -2.990824662390    0.888272000000
 H    1.576276958526   -2.990824662390   -0.888272000000
 C    2.553757958526   -1.305431662390    0.000000000000
 O    2.392653958526   -0.095880662390    0.000000000000
 O    3.796043958526   -1.882439662390    0.000000000000
 H    4.430579958526   -1.143876662390    0.000000000000
NA   -6.759479481976    3.678831709070    0.000000000000
