25

 C   -0.075313313077    2.427699935874    0.000000000000
 H    0.394516686923    3.429009935874    0.000000000000
 H    0.247846686923    1.885599935874    0.890690000000
 H    0.247846686923    1.885599935874   -0.890690000000
 C   -1.593943313077    2.556289935874    0.000000000000
 H   -1.940123313077    3.116189935874   -0.889110000000
 H   -1.940123313077    3.116189935874    0.889110000000
 O   -2.103793313077    1.213929935874    0.000000000000
 C   -3.540403313077    1.221569935874    0.000000000000
 H   -3.923703313077    1.720099935874   -0.900390000000
 H   -3.923703313077    1.720099935874    0.900390000000
 H   -3.856713313077    0.171929935874    0.000000000000
RB    0.476846686923   -0.275150064126    0.000000000000
 O    1.429611000064   -0.824913798476    0.000000000000
 C    2.866220682440   -0.832554309190    0.000000000000
 H    3.249512829793   -1.331078939299    0.900384040592
 H    3.249512829793   -1.331078939299   -0.900384040592
 H    3.182530966592    0.217091210516    0.000000000000
 C    0.919752179306   -2.167266296628    0.000000000000
 H    1.265937721622   -2.727170857372    0.889110730758
 H    1.265937721622   -2.727170857372   -0.889110730758
 C   -0.598873816779   -2.038681820059    0.000000000000
 H   -1.068696875694   -3.039987415675    0.000000000000
 H   -0.922030434330   -1.496580279040   -0.890690711839
 H   -0.922030434330   -1.496580279040    0.890690711839
