25

 C   -0.151428397638    2.471619835635    0.000000000000
 H    0.318401602362    3.472929835635    0.000000000000
 H    0.171731602362    1.929519835635    0.890690000000
 H    0.171731602362    1.929519835635   -0.890690000000
 C   -1.670058397638    2.600209835635    0.000000000000
 H   -2.016238397638    3.160109835635   -0.889110000000
 H   -2.016238397638    3.160109835635    0.889110000000
 O   -2.179908397638    1.257849835635    0.000000000000
 C   -3.616518397638    1.265489835635    0.000000000000
 H   -3.999818397638    1.764019835635   -0.900390000000
 H   -3.999818397638    1.764019835635    0.900390000000
 H   -3.932828397638    0.215849835635    0.000000000000
RB    0.400731602362   -0.231230164365    0.000000000000
 O    1.613340728177   -0.930929462628    0.000000000000
 C    3.049950410553   -0.938569973343    0.000000000000
 H    3.433242557906   -1.437094603452    0.900384040592
 H    3.433242557906   -1.437094603452   -0.900384040592
 H    3.366260694706    0.111075546363    0.000000000000
 C    1.103481907420   -2.273281960781    0.000000000000
 H    1.449667449736   -2.833186521525    0.889110730758
 H    1.449667449736   -2.833186521525   -0.889110730758
 C   -0.415144088665   -2.144697484212    0.000000000000
 H   -0.884967147580   -3.146003079828    0.000000000000
 H   -0.738300706217   -1.602595943192   -0.890690711839
 H   -0.738300706217   -1.602595943192    0.890690711839
