25

 C   -0.227543482199    2.515539735395    0.000000000000
 H    0.242286517801    3.516849735395    0.000000000000
 H    0.095616517801    1.973439735395    0.890690000000
 H    0.095616517801    1.973439735395   -0.890690000000
 C   -1.746173482199    2.644129735395    0.000000000000
 H   -2.092353482199    3.204029735395   -0.889110000000
 H   -2.092353482199    3.204029735395    0.889110000000
 O   -2.256023482199    1.301769735395    0.000000000000
 C   -3.692633482199    1.309409735395    0.000000000000
 H   -4.075933482199    1.807939735395   -0.900390000000
 H   -4.075933482199    1.807939735395    0.900390000000
 H   -4.008943482199    0.259769735395    0.000000000000
RB    0.324616517801   -0.187310264605    0.000000000000
 O    1.797070456291   -1.036945126781    0.000000000000
 C    3.233680138666   -1.044585637496    0.000000000000
 H    3.616972286020   -1.543110267604    0.900384040592
 H    3.616972286020   -1.543110267604   -0.900384040592
 H    3.549990422819    0.005059882210    0.000000000000
 C    1.287211635533   -2.379297624933    0.000000000000
 H    1.633397177849   -2.939202185677    0.889110730758
 H    1.633397177849   -2.939202185677   -0.889110730758
 C   -0.231414360552   -2.250713148365    0.000000000000
 H   -0.701237419467   -3.252018743981    0.000000000000
 H   -0.554570978103   -1.708611607345   -0.890690711839
 H   -0.554570978103   -1.708611607345    0.890690711839
