25

 C   -2.333394155063    3.730656962109    0.000000000000
 H   -1.863564155063    4.731966962109    0.000000000000
 H   -2.010234155063    3.188556962109    0.890690000000
 H   -2.010234155063    3.188556962109   -0.890690000000
 C   -3.852024155063    3.859246962109    0.000000000000
 H   -4.198204155063    4.419146962109   -0.889110000000
 H   -4.198204155063    4.419146962109    0.889110000000
 O   -4.361874155063    2.516886962109    0.000000000000
 C   -5.798484155063    2.524526962109    0.000000000000
 H   -6.181784155063    3.023056962109   -0.900390000000
 H   -6.181784155063    3.023056962109    0.900390000000
 H   -6.114794155063    1.474886962109    0.000000000000
RB   -1.781234155063    1.027806962109    0.000000000000
 O    6.880259600761   -3.970045168339    0.000000000000
 C    8.316869283136   -3.977685679054    0.000000000000
 H    8.700161430490   -4.476210309163    0.900384040592
 H    8.700161430490   -4.476210309163   -0.900384040592
 H    8.633179567289   -2.928040159348    0.000000000000
 C    6.370400780003   -5.312397666492    0.000000000000
 H    6.716586322319   -5.872302227236    0.889110730758
 H    6.716586322319   -5.872302227236   -0.889110730758
 C    4.851774783918   -5.183813189923    0.000000000000
 H    4.381951725003   -6.185118785539    0.000000000000
 H    4.528618166367   -4.641711648904   -0.890690711839
 H    4.528618166367   -4.641711648904    0.890690711839
