25

 C   -0.303658566761    2.559459635156    0.000000000000
 H    0.166171433239    3.560769635156    0.000000000000
 H    0.019501433239    2.017359635156    0.890690000000
 H    0.019501433239    2.017359635156   -0.890690000000
 C   -1.822288566761    2.688049635156    0.000000000000
 H   -2.168468566761    3.247949635156   -0.889110000000
 H   -2.168468566761    3.247949635156    0.889110000000
 O   -2.332138566761    1.345689635156    0.000000000000
 C   -3.768748566761    1.353329635156    0.000000000000
 H   -4.152048566761    1.851859635156   -0.900390000000
 H   -4.152048566761    1.851859635156    0.900390000000
 H   -4.085058566761    0.303689635156    0.000000000000
RB    0.248501433239   -0.143390364844    0.000000000000
 O    1.980800184404   -1.142960790934    0.000000000000
 C    3.417409866780   -1.150601301649    0.000000000000
 H    3.800702014133   -1.649125931757    0.900384040592
 H    3.800702014133   -1.649125931757   -0.900384040592
 H    3.733720150933   -0.100955781942    0.000000000000
 C    1.470941363647   -2.485313289086    0.000000000000
 H    1.817126905962   -3.045217849830    0.889110730758
 H    1.817126905962   -3.045217849830   -0.889110730758
 C   -0.047684632439   -2.356728812517    0.000000000000
 H   -0.517507691354   -3.358034408133    0.000000000000
 H   -0.370841249990   -1.814627271498   -0.890690711839
 H   -0.370841249990   -1.814627271498    0.890690711839
