25

 C   -0.329030261614    2.574099601743    0.000000000000
 H    0.140799738386    3.575409601743    0.000000000000
 H   -0.005870261614    2.031999601743    0.890690000000
 H   -0.005870261614    2.031999601743   -0.890690000000
 C   -1.847660261614    2.702689601743    0.000000000000
 H   -2.193840261614    3.262589601743   -0.889110000000
 H   -2.193840261614    3.262589601743    0.889110000000
 O   -2.357510261614    1.360329601743    0.000000000000
 C   -3.794120261614    1.367969601743    0.000000000000
 H   -4.177420261614    1.866499601743   -0.900390000000
 H   -4.177420261614    1.866499601743    0.900390000000
 H   -4.110430261614    0.318329601743    0.000000000000
RB    0.223129738386   -0.128750398257    0.000000000000
 O    2.042043427108   -1.178299345651    0.000000000000
 C    3.478653109484   -1.185939856366    0.000000000000
 H    3.861945256838   -1.684464486475    0.900384040592
 H    3.861945256838   -1.684464486475   -0.900384040592
 H    3.794963393637   -0.136294336660    0.000000000000
 C    1.532184606351   -2.520651843804    0.000000000000
 H    1.878370148667   -3.080556404548    0.889110730758
 H    1.878370148667   -3.080556404548   -0.889110730758
 C    0.013558610266   -2.392067367235    0.000000000000
 H   -0.456264448649   -3.393372962851    0.000000000000
 H   -0.309598007285   -1.849965826215   -0.890690711839
 H   -0.309598007285   -1.849965826215    0.890690711839
