25

 C   -0.430517041030    2.632659468091    0.000000000000
 H    0.039312958970    3.633969468091    0.000000000000
 H   -0.107357041030    2.090559468091    0.890690000000
 H   -0.107357041030    2.090559468091   -0.890690000000
 C   -1.949147041030    2.761249468091    0.000000000000
 H   -2.295327041030    3.321149468091   -0.889110000000
 H   -2.295327041030    3.321149468091    0.889110000000
 O   -2.458997041030    1.418889468091    0.000000000000
 C   -3.895607041030    1.426529468091    0.000000000000
 H   -4.278907041030    1.925059468091   -0.900390000000
 H   -4.278907041030    1.925059468091    0.900390000000
 H   -4.211917041030    0.376889468091    0.000000000000
RB    0.121642958970   -0.070190531909    0.000000000000
 O    2.287016397926   -1.319653564522    0.000000000000
 C    3.723626080302   -1.327294075236    0.000000000000
 H    4.106918227655   -1.825818705345    0.900384040592
 H    4.106918227655   -1.825818705345   -0.900384040592
 H    4.039936364455   -0.277648555530    0.000000000000
 C    1.777157577169   -2.662006062674    0.000000000000
 H    2.123343119485   -3.221910623418    0.889110730758
 H    2.123343119485   -3.221910623418   -0.889110730758
 C    0.258531581084   -2.533421586105    0.000000000000
 H   -0.211291477831   -3.534727181721    0.000000000000
 H   -0.064625036468   -1.991320045086   -0.890690711839
 H   -0.064625036468   -1.991320045086    0.890690711839
