25

 C   -0.455888735883    2.647299434678    0.000000000000
 H    0.013941264117    3.648609434678    0.000000000000
 H   -0.132728735883    2.105199434678    0.890690000000
 H   -0.132728735883    2.105199434678   -0.890690000000
 C   -1.974518735883    2.775889434678    0.000000000000
 H   -2.320698735883    3.335789434678   -0.889110000000
 H   -2.320698735883    3.335789434678    0.889110000000
 O   -2.484368735883    1.433529434678    0.000000000000
 C   -3.920978735883    1.441169434678    0.000000000000
 H   -4.304278735883    1.939699434678   -0.900390000000
 H   -4.304278735883    1.939699434678    0.900390000000
 H   -4.237288735883    0.391529434678    0.000000000000
RB    0.096271264117   -0.055550565322    0.000000000000
 O    2.348259640631   -1.354992119239    0.000000000000
 C    3.784869323007   -1.362632629954    0.000000000000
 H    4.168161470360   -1.861157260063    0.900384040592
 H    4.168161470360   -1.861157260063   -0.900384040592
 H    4.101179607159   -0.312987110248    0.000000000000
 C    1.838400819873   -2.697344617392    0.000000000000
 H    2.184586362189   -3.257249178136    0.889110730758
 H    2.184586362189   -3.257249178136   -0.889110730758
 C    0.319774823788   -2.568760140823    0.000000000000
 H   -0.150048235127   -3.570065736439    0.000000000000
 H   -0.003381793763   -2.026658599803   -0.890690711839
 H   -0.003381793763   -2.026658599803    0.890690711839
