25

 C   -0.532003820445    2.691219334438    0.000000000000
 H   -0.062173820445    3.692529334438    0.000000000000
 H   -0.208843820445    2.149119334438    0.890690000000
 H   -0.208843820445    2.149119334438   -0.890690000000
 C   -2.050633820445    2.819809334438    0.000000000000
 H   -2.396813820445    3.379709334438   -0.889110000000
 H   -2.396813820445    3.379709334438    0.889110000000
 O   -2.560483820445    1.477449334438    0.000000000000
 C   -3.997093820445    1.485089334438    0.000000000000
 H   -4.380393820445    1.983619334438   -0.900390000000
 H   -4.380393820445    1.983619334438    0.900390000000
 H   -4.313403820445    0.435449334438    0.000000000000
RB    0.020156179555   -0.011630665562    0.000000000000
 O    2.531989368744   -1.461007783392    0.000000000000
 C    3.968599051120   -1.468648294107    0.000000000000
 H    4.351891198473   -1.967172924215    0.900384040592
 H    4.351891198473   -1.967172924215   -0.900384040592
 H    4.284909335273   -0.419002774400    0.000000000000
 C    2.022130547987   -2.803360281544    0.000000000000
 H    2.368316090302   -3.363264842288    0.889110730758
 H    2.368316090302   -3.363264842288   -0.889110730758
 C    0.503504551902   -2.674775804976    0.000000000000
 H    0.033681492987   -3.676081400591    0.000000000000
 H    0.180347934350   -2.132674263956   -0.890690711839
 H    0.180347934350   -2.132674263956    0.890690711839
