25

 C   -0.633490599860    2.749779200786    0.000000000000
 H   -0.163660599860    3.751089200786    0.000000000000
 H   -0.310330599860    2.207679200786    0.890690000000
 H   -0.310330599860    2.207679200786   -0.890690000000
 C   -2.152120599860    2.878369200786    0.000000000000
 H   -2.498300599860    3.438269200786   -0.889110000000
 H   -2.498300599860    3.438269200786    0.889110000000
 O   -2.661970599860    1.536009200786    0.000000000000
 C   -4.098580599860    1.543649200786    0.000000000000
 H   -4.481880599860    2.042179200786   -0.900390000000
 H   -4.481880599860    2.042179200786    0.900390000000
 H   -4.414890599860    0.494009200786    0.000000000000
RB   -0.081330599860    0.046929200786    0.000000000000
 O    2.776962339562   -1.602362002262    0.000000000000
 C    4.213572021938   -1.610002512977    0.000000000000
 H    4.596864169291   -2.108527143086    0.900384040592
 H    4.596864169291   -2.108527143086   -0.900384040592
 H    4.529882306090   -0.560356993271    0.000000000000
 C    2.267103518805   -2.944714500415    0.000000000000
 H    2.613289061120   -3.504619061159    0.889110730758
 H    2.613289061120   -3.504619061159   -0.889110730758
 C    0.748477522719   -2.816130023846    0.000000000000
 H    0.278654463804   -3.817435619462    0.000000000000
 H    0.425320905168   -2.274028482826   -0.890690711839
 H    0.425320905168   -2.274028482826    0.890690711839
