25

 C   -0.684233989567    2.779059133960    0.000000000000
 H   -0.214403989567    3.780369133960    0.000000000000
 H   -0.361073989567    2.236959133960    0.890690000000
 H   -0.361073989567    2.236959133960   -0.890690000000
 C   -2.202863989567    2.907649133960    0.000000000000
 H   -2.549043989567    3.467549133960   -0.889110000000
 H   -2.549043989567    3.467549133960    0.889110000000
 O   -2.712713989567    1.565289133960    0.000000000000
 C   -4.149323989567    1.572929133960    0.000000000000
 H   -4.532623989567    2.071459133960   -0.900390000000
 H   -4.532623989567    2.071459133960    0.900390000000
 H   -4.465633989567    0.523289133960    0.000000000000
RB   -0.132073989567    0.076209133960    0.000000000000
 O    2.899448824971   -1.673039111697    0.000000000000
 C    4.336058507347   -1.680679622412    0.000000000000
 H    4.719350654700   -2.179204252521    0.900384040592
 H    4.719350654700   -2.179204252521   -0.900384040592
 H    4.652368791499   -0.631034102706    0.000000000000
 C    2.389590004213   -3.015391609850    0.000000000000
 H    2.735775546529   -3.575296170594    0.889110730758
 H    2.735775546529   -3.575296170594   -0.889110730758
 C    0.870964008128   -2.886807133281    0.000000000000
 H    0.401140949213   -3.888112728897    0.000000000000
 H    0.547807390577   -2.344705592261   -0.890690711839
 H    0.547807390577   -2.344705592261    0.890690711839
