25

 C   -0.836464158690    2.866898933481    0.000000000000
 H   -0.366634158690    3.868208933481    0.000000000000
 H   -0.513304158690    2.324798933481    0.890690000000
 H   -0.513304158690    2.324798933481   -0.890690000000
 C   -2.355094158690    2.995488933481    0.000000000000
 H   -2.701274158690    3.555388933481   -0.889110000000
 H   -2.701274158690    3.555388933481    0.889110000000
 O   -2.864944158690    1.653128933481    0.000000000000
 C   -4.301554158690    1.660768933481    0.000000000000
 H   -4.684854158690    2.159298933481   -0.900390000000
 H   -4.684854158690    2.159298933481    0.900390000000
 H   -4.617864158690    0.611128933481    0.000000000000
RB   -0.284304158690    0.164048933481    0.000000000000
 O    3.266908281198   -1.885070440003    0.000000000000
 C    4.703517963573   -1.892710950718    0.000000000000
 H    5.086810110927   -2.391235580826    0.900384040592
 H    5.086810110927   -2.391235580826   -0.900384040592
 H    5.019828247726   -0.843065431011    0.000000000000
 C    2.757049460440   -3.227422938155    0.000000000000
 H    3.103235002756   -3.787327498899    0.889110730758
 H    3.103235002756   -3.787327498899   -0.889110730758
 C    1.238423464355   -3.098838461586    0.000000000000
 H    0.768600405440   -4.100144057202    0.000000000000
 H    0.915266846804   -2.556736920567   -0.890690711839
 H    0.915266846804   -2.556736920567    0.890690711839
