25

 C   -0.937950938105    2.925458799829    0.000000000000
 H   -0.468120938105    3.926768799829    0.000000000000
 H   -0.614790938105    2.383358799829    0.890690000000
 H   -0.614790938105    2.383358799829   -0.890690000000
 C   -2.456580938105    3.054048799829    0.000000000000
 H   -2.802760938105    3.613948799829   -0.889110000000
 H   -2.802760938105    3.613948799829    0.889110000000
 O   -2.966430938105    1.711688799829    0.000000000000
 C   -4.403040938105    1.719328799829    0.000000000000
 H   -4.786340938105    2.217858799829   -0.900390000000
 H   -4.786340938105    2.217858799829    0.900390000000
 H   -4.719350938105    0.669688799829    0.000000000000
RB   -0.385790938105    0.222608799829    0.000000000000
 O    3.511881252015   -2.026424658873    0.000000000000
 C    4.948490934391   -2.034065169588    0.000000000000
 H    5.331783081745   -2.532589799696    0.900384040592
 H    5.331783081745   -2.532589799696   -0.900384040592
 H    5.264801218544   -0.984419649882    0.000000000000
 C    3.002022431258   -3.368777157025    0.000000000000
 H    3.348207973574   -3.928681717769    0.889110730758
 H    3.348207973574   -3.928681717769   -0.889110730758
 C    1.483396435173   -3.240192680457    0.000000000000
 H    1.013573376258   -4.241498276073    0.000000000000
 H    1.160239817622   -2.698091139437   -0.890690711839
 H    1.160239817622   -2.698091139437    0.890690711839
