25

 C   -1.039437717520    2.984018666177    0.000000000000
 H   -0.569607717520    3.985328666177    0.000000000000
 H   -0.716277717520    2.441918666177    0.890690000000
 H   -0.716277717520    2.441918666177   -0.890690000000
 C   -2.558067717520    3.112608666177    0.000000000000
 H   -2.904247717520    3.672508666177   -0.889110000000
 H   -2.904247717520    3.672508666177    0.889110000000
 O   -3.067917717520    1.770248666177    0.000000000000
 C   -4.504527717520    1.777888666177    0.000000000000
 H   -4.887827717520    2.276418666177   -0.900390000000
 H   -4.887827717520    2.276418666177    0.900390000000
 H   -4.820837717520    0.728248666177    0.000000000000
RB   -0.487277717520    0.281168666177    0.000000000000
 O    3.756854222833   -2.167778877743    0.000000000000
 C    5.193463905209   -2.175419388458    0.000000000000
 H    5.576756052562   -2.673944018567    0.900384040592
 H    5.576756052562   -2.673944018567   -0.900384040592
 H    5.509774189362   -1.125773868752    0.000000000000
 C    3.246995402076   -3.510131375896    0.000000000000
 H    3.593180944392   -4.070035936640    0.889110730758
 H    3.593180944392   -4.070035936640   -0.889110730758
 C    1.728369405991   -3.381546899327    0.000000000000
 H    1.258546347076   -4.382852494943    0.000000000000
 H    1.405212788439   -2.839445358307   -0.890690711839
 H    1.405212788439   -2.839445358307    0.890690711839
