25

 C   -1.090181107228    3.013298599350    0.000000000000
 H   -0.620351107228    4.014608599350    0.000000000000
 H   -0.767021107228    2.471198599350    0.890690000000
 H   -0.767021107228    2.471198599350   -0.890690000000
 C   -2.608811107228    3.141888599350    0.000000000000
 H   -2.954991107228    3.701788599350   -0.889110000000
 H   -2.954991107228    3.701788599350    0.889110000000
 O   -3.118661107228    1.799528599350    0.000000000000
 C   -4.555271107228    1.807168599350    0.000000000000
 H   -4.938571107228    2.305698599350   -0.900390000000
 H   -4.938571107228    2.305698599350    0.900390000000
 H   -4.871581107228    0.757528599350    0.000000000000
RB   -0.538021107228    0.310448599350    0.000000000000
 O    3.879340708242   -2.238455987178    0.000000000000
 C    5.315950390618   -2.246096497893    0.000000000000
 H    5.699242537971   -2.744621128002    0.900384040592
 H    5.699242537971   -2.744621128002   -0.900384040592
 H    5.632260674771   -1.196450978187    0.000000000000
 C    3.369481887485   -3.580808485331    0.000000000000
 H    3.715667429801   -4.140713046075    0.889110730758
 H    3.715667429801   -4.140713046075   -0.889110730758
 C    1.850855891400   -3.452224008762    0.000000000000
 H    1.381032832485   -4.453529604378    0.000000000000
 H    1.527699273848   -2.910122467743   -0.890690711839
 H    1.527699273848   -2.910122467743    0.890690711839
