25

 C   -1.217039581497    3.086498432285    0.000000000000
 H   -0.747209581497    4.087808432285    0.000000000000
 H   -0.893879581497    2.544398432285    0.890690000000
 H   -0.893879581497    2.544398432285   -0.890690000000
 C   -2.735669581497    3.215088432285    0.000000000000
 H   -3.081849581497    3.774988432285   -0.889110000000
 H   -3.081849581497    3.774988432285    0.889110000000
 O   -3.245519581497    1.872728432285    0.000000000000
 C   -4.682129581497    1.880368432285    0.000000000000
 H   -5.065429581497    2.378898432285   -0.900390000000
 H   -5.065429581497    2.378898432285    0.900390000000
 H   -4.998439581497    0.830728432285    0.000000000000
RB   -0.664879581497    0.383648432285    0.000000000000
 O    4.185556921764   -2.415148760766    0.000000000000
 C    5.622166604140   -2.422789271481    0.000000000000
 H    6.005458751494   -2.921313901590    0.900384040592
 H    6.005458751494   -2.921313901590   -0.900384040592
 H    5.938476888293   -1.373143751775    0.000000000000
 C    3.675698101007   -3.757501258919    0.000000000000
 H    4.021883643323   -4.317405819663    0.889110730758
 H    4.021883643323   -4.317405819663   -0.889110730758
 C    2.157072104922   -3.628916782350    0.000000000000
 H    1.687249046007   -4.630222377966    0.000000000000
 H    1.833915487371   -3.086815241330   -0.890690711839
 H    1.833915487371   -3.086815241330    0.890690711839
