25

 C   -1.470756530034    3.232898098154    0.000000000000
 H   -1.000926530034    4.234208098154    0.000000000000
 H   -1.147596530034    2.690798098154    0.890690000000
 H   -1.147596530034    2.690798098154   -0.890690000000
 C   -2.989386530034    3.361488098154    0.000000000000
 H   -3.335566530034    3.921388098154   -0.889110000000
 H   -3.335566530034    3.921388098154    0.889110000000
 O   -3.499236530034    2.019128098154    0.000000000000
 C   -4.935846530034    2.026768098154    0.000000000000
 H   -5.319146530034    2.525298098154   -0.900390000000
 H   -5.319146530034    2.525298098154    0.900390000000
 H   -5.252156530034    0.977128098154    0.000000000000
RB   -0.918596530034    0.530048098154    0.000000000000
 O    4.797989348809   -2.768534307942    0.000000000000
 C    6.234599031185   -2.776174818657    0.000000000000
 H    6.617891178538   -3.274699448765    0.900384040592
 H    6.617891178538   -3.274699448765   -0.900384040592
 H    6.550909315338   -1.726529298951    0.000000000000
 C    4.288130528052   -4.110886806094    0.000000000000
 H    4.634316070367   -4.670791366838    0.889110730758
 H    4.634316070367   -4.670791366838   -0.889110730758
 C    2.769504531966   -3.982302329526    0.000000000000
 H    2.299681473051   -4.983607925142    0.000000000000
 H    2.446347914415   -3.440200788506   -0.890690711839
 H    2.446347914415   -3.440200788506    0.890690711839
