25

 C   -1.572243309449    3.291457964502    0.000000000000
 H   -1.102413309449    4.292767964502    0.000000000000
 H   -1.249083309449    2.749357964502    0.890690000000
 H   -1.249083309449    2.749357964502   -0.890690000000
 C   -3.090873309449    3.420047964502    0.000000000000
 H   -3.437053309449    3.979947964502   -0.889110000000
 H   -3.437053309449    3.979947964502    0.889110000000
 O   -3.600723309449    2.077687964502    0.000000000000
 C   -5.037333309449    2.085327964502    0.000000000000
 H   -5.420633309449    2.583857964502   -0.900390000000
 H   -5.420633309449    2.583857964502    0.900390000000
 H   -5.353643309449    1.035687964502    0.000000000000
RB   -1.020083309449    0.588607964502    0.000000000000
 O    5.042962319627   -2.909888526812    0.000000000000
 C    6.479572002003   -2.917529037527    0.000000000000
 H    6.862864149356   -3.416053667636    0.900384040592
 H    6.862864149356   -3.416053667636   -0.900384040592
 H    6.795882286155   -1.867883517821    0.000000000000
 C    4.533103498869   -4.252241024965    0.000000000000
 H    4.879289041185   -4.812145585709    0.889110730758
 H    4.879289041185   -4.812145585709   -0.889110730758
 C    3.014477502784   -4.123656548396    0.000000000000
 H    2.544654443869   -5.124962144012    0.000000000000
 H    2.691320885233   -3.581555007376   -0.890690711839
 H    2.691320885233   -3.581555007376    0.890690711839
