25

 C   -1.724473478572    3.379297764023    0.000000000000
 H   -1.254643478572    4.380607764023    0.000000000000
 H   -1.401313478572    2.837197764023    0.890690000000
 H   -1.401313478572    2.837197764023   -0.890690000000
 C   -3.243103478572    3.507887764023    0.000000000000
 H   -3.589283478572    4.067787764023   -0.889110000000
 H   -3.589283478572    4.067787764023    0.889110000000
 O   -3.752953478572    2.165527764023    0.000000000000
 C   -5.189563478572    2.173167764023    0.000000000000
 H   -5.572863478572    2.671697764023   -0.900390000000
 H   -5.572863478572    2.671697764023    0.900390000000
 H   -5.505873478572    1.123527764023    0.000000000000
RB   -1.172313478572    0.676447764023    0.000000000000
 O    5.410421775854   -3.121919855118    0.000000000000
 C    6.847031458229   -3.129560365833    0.000000000000
 H    7.230323605583   -3.628084995941    0.900384040592
 H    7.230323605583   -3.628084995941   -0.900384040592
 H    7.163341742382   -2.079914846126    0.000000000000
 C    4.900562955096   -4.464272353270    0.000000000000
 H    5.246748497412   -5.024176914014    0.889110730758
 H    5.246748497412   -5.024176914014   -0.889110730758
 C    3.381936959011   -4.335687876701    0.000000000000
 H    2.912113900096   -5.336993472317    0.000000000000
 H    3.058780341460   -3.793586335682   -0.890690711839
 H    3.058780341460   -3.793586335682    0.890690711839
