25

 C   -1.749845173426    3.393937730610    0.000000000000
 H   -1.280015173426    4.395247730610    0.000000000000
 H   -1.426685173426    2.851837730610    0.890690000000
 H   -1.426685173426    2.851837730610   -0.890690000000
 C   -3.268475173426    3.522527730610    0.000000000000
 H   -3.614655173426    4.082427730610   -0.889110000000
 H   -3.614655173426    4.082427730610    0.889110000000
 O   -3.778325173426    2.180167730610    0.000000000000
 C   -5.214935173426    2.187807730610    0.000000000000
 H   -5.598235173426    2.686337730610   -0.900390000000
 H   -5.598235173426    2.686337730610    0.900390000000
 H   -5.531245173426    1.138167730610    0.000000000000
RB   -1.197685173426    0.691087730610    0.000000000000
 O    5.471665018558   -3.157258409835    0.000000000000
 C    6.908274700934   -3.164898920550    0.000000000000
 H    7.291566848287   -3.663423550659    0.900384040592
 H    7.291566848287   -3.663423550659   -0.900384040592
 H    7.224584985087   -2.115253400844    0.000000000000
 C    4.961806197801   -4.499610907988    0.000000000000
 H    5.307991740116   -5.059515468732    0.889110730758
 H    5.307991740116   -5.059515468732   -0.889110730758
 C    3.443180201716   -4.371026431419    0.000000000000
 H    2.973357142800   -5.372332027035    0.000000000000
 H    3.120023584164   -3.828924890399   -0.890690711839
 H    3.120023584164   -3.828924890399    0.890690711839
