25

 C   -1.902075342549    3.481777530132    0.000000000000
 H   -1.432245342549    4.483087530132    0.000000000000
 H   -1.578915342549    2.939677530132    0.890690000000
 H   -1.578915342549    2.939677530132   -0.890690000000
 C   -3.420705342549    3.610367530132    0.000000000000
 H   -3.766885342549    4.170267530132   -0.889110000000
 H   -3.766885342549    4.170267530132    0.889110000000
 O   -3.930555342549    2.268007530132    0.000000000000
 C   -5.367165342549    2.275647530132    0.000000000000
 H   -5.750465342549    2.774177530132   -0.900390000000
 H   -5.750465342549    2.774177530132    0.900390000000
 H   -5.683475342549    1.226007530132    0.000000000000
RB   -1.349915342549    0.778927530132    0.000000000000
 O    5.839124474785   -3.369289738141    0.000000000000
 C    7.275734157161   -3.376930248856    0.000000000000
 H    7.659026304514   -3.875454878964    0.900384040592
 H    7.659026304514   -3.875454878964   -0.900384040592
 H    7.592044441313   -2.327284729149    0.000000000000
 C    5.329265654027   -4.711642236293    0.000000000000
 H    5.675451196343   -5.271546797037    0.889110730758
 H    5.675451196343   -5.271546797037   -0.889110730758
 C    3.810639657942   -4.583057759724    0.000000000000
 H    3.340816599027   -5.584363355340    0.000000000000
 H    3.487483040391   -4.040956218705   -0.890690711839
 H    3.487483040391   -4.040956218705    0.890690711839
