25

 C   -1.927447037402    3.496417496719    0.000000000000
 H   -1.457617037402    4.497727496719    0.000000000000
 H   -1.604287037402    2.954317496719    0.890690000000
 H   -1.604287037402    2.954317496719   -0.890690000000
 C   -3.446077037402    3.625007496719    0.000000000000
 H   -3.792257037402    4.184907496719   -0.889110000000
 H   -3.792257037402    4.184907496719    0.889110000000
 O   -3.955927037402    2.282647496719    0.000000000000
 C   -5.392537037402    2.290287496719    0.000000000000
 H   -5.775837037402    2.788817496719   -0.900390000000
 H   -5.775837037402    2.788817496719    0.900390000000
 H   -5.708847037402    1.240647496719    0.000000000000
RB   -1.375287037402    0.793567496719    0.000000000000
 O    5.900367717489   -3.404628292858    0.000000000000
 C    7.336977399865   -3.412268803573    0.000000000000
 H    7.720269547218   -3.910793433682    0.900384040592
 H    7.720269547218   -3.910793433682   -0.900384040592
 H    7.653287684018   -2.362623283867    0.000000000000
 C    5.390508896732   -4.746980791011    0.000000000000
 H    5.736694439048   -5.306885351755    0.889110730758
 H    5.736694439048   -5.306885351755   -0.889110730758
 C    3.871882900647   -4.618396314442    0.000000000000
 H    3.402059841732   -5.619701910058    0.000000000000
 H    3.548726283095   -4.076294773422   -0.890690711839
 H    3.548726283095   -4.076294773422    0.890690711839
