25

 C   -1.952818732256    3.511057463306    0.000000000000
 H   -1.482988732256    4.512367463306    0.000000000000
 H   -1.629658732256    2.968957463306    0.890690000000
 H   -1.629658732256    2.968957463306   -0.890690000000
 C   -3.471448732256    3.639647463306    0.000000000000
 H   -3.817628732256    4.199547463306   -0.889110000000
 H   -3.817628732256    4.199547463306    0.889110000000
 O   -3.981298732256    2.297287463306    0.000000000000
 C   -5.417908732256    2.304927463306    0.000000000000
 H   -5.801208732256    2.803457463306   -0.900390000000
 H   -5.801208732256    2.803457463306    0.900390000000
 H   -5.734218732256    1.255287463306    0.000000000000
RB   -1.400658732256    0.808207463306    0.000000000000
 O    5.961610960194   -3.439966847576    0.000000000000
 C    7.398220642570   -3.447607358291    0.000000000000
 H    7.781512789923   -3.946131988399    0.900384040592
 H    7.781512789923   -3.946131988399   -0.900384040592
 H    7.714530926722   -2.397961838585    0.000000000000
 C    5.451752139436   -4.782319345728    0.000000000000
 H    5.797937681752   -5.342223906472    0.889110730758
 H    5.797937681752   -5.342223906472   -0.889110730758
 C    3.933126143351   -4.653734869160    0.000000000000
 H    3.463303084436   -5.655040464775    0.000000000000
 H    3.609969525800   -4.111633328140   -0.890690711839
 H    3.609969525800   -4.111633328140    0.890690711839
