25

 C   -2.028933816817    3.554977363066    0.000000000000
 H   -1.559103816817    4.556287363066    0.000000000000
 H   -1.705773816817    3.012877363066    0.890690000000
 H   -1.705773816817    3.012877363066   -0.890690000000
 C   -3.547563816817    3.683567363066    0.000000000000
 H   -3.893743816817    4.243467363066   -0.889110000000
 H   -3.893743816817    4.243467363066    0.889110000000
 O   -4.057413816817    2.341207363066    0.000000000000
 C   -5.494023816817    2.348847363066    0.000000000000
 H   -5.877323816817    2.847377363066   -0.900390000000
 H   -5.877323816817    2.847377363066    0.900390000000
 H   -5.810333816817    1.299207363066    0.000000000000
RB   -1.476773816817    0.852127363066    0.000000000000
 O    6.145340688307   -3.545982511729    0.000000000000
 C    7.581950370683   -3.553623022443    0.000000000000
 H    7.965242518036   -4.052147652552    0.900384040592
 H    7.965242518036   -4.052147652552   -0.900384040592
 H    7.898260654836   -2.503977502737    0.000000000000
 C    5.635481867550   -4.888335009881    0.000000000000
 H    5.981667409865   -5.448239570625    0.889110730758
 H    5.981667409865   -5.448239570625   -0.889110730758
 C    4.116855871465   -4.759750533312    0.000000000000
 H    3.647032812550   -5.761056128928    0.000000000000
 H    3.793699253913   -4.217648992293   -0.890690711839
 H    3.793699253913   -4.217648992293    0.890690711839
