25

 C   -2.054305511671    3.569617329653    0.000000000000
 H   -1.584475511671    4.570927329653    0.000000000000
 H   -1.731145511671    3.027517329653    0.890690000000
 H   -1.731145511671    3.027517329653   -0.890690000000
 C   -3.572935511671    3.698207329653    0.000000000000
 H   -3.919115511671    4.258107329653   -0.889110000000
 H   -3.919115511671    4.258107329653    0.889110000000
 O   -4.082785511671    2.355847329653    0.000000000000
 C   -5.519395511671    2.363487329653    0.000000000000
 H   -5.902695511671    2.862017329653   -0.900390000000
 H   -5.902695511671    2.862017329653    0.900390000000
 H   -5.835705511671    1.313847329653    0.000000000000
RB   -1.502145511671    0.866767329653    0.000000000000
 O    6.206583931012   -3.581321066446    0.000000000000
 C    7.643193613387   -3.588961577161    0.000000000000
 H    8.026485760741   -4.087486207270    0.900384040592
 H    8.026485760741   -4.087486207270   -0.900384040592
 H    7.959503897540   -2.539316057455    0.000000000000
 C    5.696725110254   -4.923673564599    0.000000000000
 H    6.042910652570   -5.483578125343    0.889110730758
 H    6.042910652570   -5.483578125343   -0.889110730758
 C    4.178099114169   -4.795089088030    0.000000000000
 H    3.708276055254   -5.796394683646    0.000000000000
 H    3.854942496618   -4.252987547010   -0.890690711839
 H    3.854942496618   -4.252987547010    0.890690711839
