25

 C   -2.079677206525    3.584257296240    0.000000000000
 H   -1.609847206525    4.585567296240    0.000000000000
 H   -1.756517206525    3.042157296240    0.890690000000
 H   -1.756517206525    3.042157296240   -0.890690000000
 C   -3.598307206525    3.712847296240    0.000000000000
 H   -3.944487206525    4.272747296240   -0.889110000000
 H   -3.944487206525    4.272747296240    0.889110000000
 O   -4.108157206525    2.370487296240    0.000000000000
 C   -5.544767206525    2.378127296240    0.000000000000
 H   -5.928067206525    2.876657296240   -0.900390000000
 H   -5.928067206525    2.876657296240    0.900390000000
 H   -5.861077206525    1.328487296240    0.000000000000
RB   -1.527517206525    0.881407296240    0.000000000000
 O    6.267827173716   -3.616659621164    0.000000000000
 C    7.704436856092   -3.624300131879    0.000000000000
 H    8.087729003445   -4.122824761987    0.900384040592
 H    8.087729003445   -4.122824761987   -0.900384040592
 H    8.020747140245   -2.574654612172    0.000000000000
 C    5.757968352959   -4.959012119316    0.000000000000
 H    6.104153895274   -5.518916680060    0.889110730758
 H    6.104153895274   -5.518916680060   -0.889110730758
 C    4.239342356873   -4.830427642747    0.000000000000
 H    3.769519297958   -5.831733238363    0.000000000000
 H    3.916185739322   -4.288326101728   -0.890690711839
 H    3.916185739322   -4.288326101728    0.890690711839
