25

 C   -2.105048901379    3.598897262827    0.000000000000
 H   -1.635218901379    4.600207262827    0.000000000000
 H   -1.781888901379    3.056797262827    0.890690000000
 H   -1.781888901379    3.056797262827   -0.890690000000
 C   -3.623678901379    3.727487262827    0.000000000000
 H   -3.969858901379    4.287387262827   -0.889110000000
 H   -3.969858901379    4.287387262827    0.889110000000
 O   -4.133528901379    2.385127262827    0.000000000000
 C   -5.570138901379    2.392767262827    0.000000000000
 H   -5.953438901379    2.891297262827   -0.900390000000
 H   -5.953438901379    2.891297262827    0.900390000000
 H   -5.886448901379    1.343127262827    0.000000000000
RB   -1.552888901379    0.896047262827    0.000000000000
 O    6.329070416420   -3.651998175881    0.000000000000
 C    7.765680098796   -3.659638686596    0.000000000000
 H    8.148972246150   -4.158163316705    0.900384040592
 H    8.148972246150   -4.158163316705   -0.900384040592
 H    8.081990382949   -2.609993166890    0.000000000000
 C    5.819211595663   -4.994350674034    0.000000000000
 H    6.165397137979   -5.554255234778    0.889110730758
 H    6.165397137979   -5.554255234778   -0.889110730758
 C    4.300585599578   -4.865766197465    0.000000000000
 H    3.830762540663   -5.867071793081    0.000000000000
 H    3.977428982027   -4.323664656445   -0.890690711839
 H    3.977428982027   -4.323664656445    0.890690711839
