25

 C   -2.130420596233    3.613537229414    0.000000000000
 H   -1.660590596233    4.614847229414    0.000000000000
 H   -1.807260596233    3.071437229414    0.890690000000
 H   -1.807260596233    3.071437229414   -0.890690000000
 C   -3.649050596233    3.742127229414    0.000000000000
 H   -3.995230596233    4.302027229414   -0.889110000000
 H   -3.995230596233    4.302027229414    0.889110000000
 O   -4.158900596233    2.399767229414    0.000000000000
 C   -5.595510596233    2.407407229414    0.000000000000
 H   -5.978810596233    2.905937229414   -0.900390000000
 H   -5.978810596233    2.905937229414    0.900390000000
 H   -5.911820596233    1.357767229414    0.000000000000
RB   -1.578260596233    0.910687229414    0.000000000000
 O    6.390313659125   -3.687336730599    0.000000000000
 C    7.826923341501   -3.694977241314    0.000000000000
 H    8.210215488854   -4.193501871422    0.900384040592
 H    8.210215488854   -4.193501871422   -0.900384040592
 H    8.143233625653   -2.645331721608    0.000000000000
 C    5.880454838368   -5.029689228751    0.000000000000
 H    6.226640380683   -5.589593789495    0.889110730758
 H    6.226640380683   -5.589593789495   -0.889110730758
 C    4.361828842282   -4.901104752183    0.000000000000
 H    3.892005783367   -5.902410347798    0.000000000000
 H    4.038672224731   -4.359003211163   -0.890690711839
 H    4.038672224731   -4.359003211163    0.890690711839
