25

 C   -2.155792291086    3.628177196001    0.000000000000
 H   -1.685962291086    4.629487196001    0.000000000000
 H   -1.832632291086    3.086077196001    0.890690000000
 H   -1.832632291086    3.086077196001   -0.890690000000
 C   -3.674422291086    3.756767196001    0.000000000000
 H   -4.020602291086    4.316667196001   -0.889110000000
 H   -4.020602291086    4.316667196001    0.889110000000
 O   -4.184272291086    2.414407196001    0.000000000000
 C   -5.620882291086    2.422047196001    0.000000000000
 H   -6.004182291086    2.920577196001   -0.900390000000
 H   -6.004182291086    2.920577196001    0.900390000000
 H   -5.937192291086    1.372407196001    0.000000000000
RB   -1.603632291086    0.925327196001    0.000000000000
 O    6.451556901829   -3.722675285316    0.000000000000
 C    7.888166584205   -3.730315796031    0.000000000000
 H    8.271458731558   -4.228840426140    0.900384040592
 H    8.271458731558   -4.228840426140   -0.900384040592
 H    8.204476868358   -2.680670276325    0.000000000000
 C    5.941698081072   -5.065027783469    0.000000000000
 H    6.287883623388   -5.624932344213    0.889110730758
 H    6.287883623388   -5.624932344213   -0.889110730758
 C    4.423072084987   -4.936443306900    0.000000000000
 H    3.953249026072   -5.937748902516    0.000000000000
 H    4.099915467436   -4.394341765881   -0.890690711839
 H    4.099915467436   -4.394341765881    0.890690711839
