25

 C   -2.257279070501    3.686737062349    0.000000000000
 H   -1.787449070501    4.688047062349    0.000000000000
 H   -1.934119070501    3.144637062349    0.890690000000
 H   -1.934119070501    3.144637062349   -0.890690000000
 C   -3.775909070501    3.815327062349    0.000000000000
 H   -4.122089070501    4.375227062349   -0.889110000000
 H   -4.122089070501    4.375227062349    0.889110000000
 O   -4.285759070501    2.472967062349    0.000000000000
 C   -5.722369070501    2.480607062349    0.000000000000
 H   -6.105669070501    2.979137062349   -0.900390000000
 H   -6.105669070501    2.979137062349    0.900390000000
 H   -6.038679070501    1.430967062349    0.000000000000
RB   -1.705119070501    0.983887062349    0.000000000000
 O    6.696529872647   -3.864029504187    0.000000000000
 C    8.133139555023   -3.871670014902    0.000000000000
 H    8.516431702376   -4.370194645010    0.900384040592
 H    8.516431702376   -4.370194645010   -0.900384040592
 H    8.449449839176   -2.822024495195    0.000000000000
 C    6.186671051890   -5.206382002339    0.000000000000
 H    6.532856594206   -5.766286563083    0.889110730758
 H    6.532856594206   -5.766286563083   -0.889110730758
 C    4.668045055805   -5.077797525770    0.000000000000
 H    4.198221996890   -6.079103121386    0.000000000000
 H    4.344888438253   -4.535695984751   -0.890690711839
 H    4.344888438253   -4.535695984751    0.890690711839
