25

 C   -2.308022460209    3.716016995522    0.000000000000
 H   -1.838192460209    4.717326995522    0.000000000000
 H   -1.984862460209    3.173916995522    0.890690000000
 H   -1.984862460209    3.173916995522   -0.890690000000
 C   -3.826652460209    3.844606995522    0.000000000000
 H   -4.172832460209    4.404506995522   -0.889110000000
 H   -4.172832460209    4.404506995522    0.889110000000
 O   -4.336502460209    2.502246995522    0.000000000000
 C   -5.773112460209    2.509886995522    0.000000000000
 H   -6.156412460209    3.008416995522   -0.900390000000
 H   -6.156412460209    3.008416995522    0.900390000000
 H   -6.089422460209    1.460246995522    0.000000000000
RB   -1.755862460209    1.013166995522    0.000000000000
 O    6.819016358056   -3.934706613622    0.000000000000
 C    8.255626040432   -3.942347124337    0.000000000000
 H    8.638918187785   -4.440871754445    0.900384040592
 H    8.638918187785   -4.440871754445   -0.900384040592
 H    8.571936324585   -2.892701604631    0.000000000000
 C    6.309157537299   -5.277059111774    0.000000000000
 H    6.655343079615   -5.836963672518    0.889110730758
 H    6.655343079615   -5.836963672518   -0.889110730758
 C    4.790531541214   -5.148474635206    0.000000000000
 H    4.320708482299   -6.149780230821    0.000000000000
 H    4.467374923662   -4.606373094186   -0.890690711839
 H    4.467374923662   -4.606373094186    0.890690711839
