17

 N   -1.856448734819   -1.966459095639   -0.002912070556
 C   -0.646260667975   -1.311252891963    0.001049553412
 N    0.587151746328   -1.909930586425    0.013087838317
 C    1.557574946384   -1.019754444814    0.001215381344
 N    1.354498108971    0.341883688700   -0.005619778998
 H    2.158325234222    0.961844228455   -0.087607801420
 N    2.883029700621   -1.438429166494   -0.077131921891
 H    3.537565905953   -0.906625942094    0.490508854839
 H    2.961834788012   -2.439129310429    0.084451416098
 C    0.095224366654    1.027917392231    0.007334007679
 O    0.067643997549    2.256090477008    0.003245879251
 C   -0.977560759322    0.054224002957    0.013535205619
 N   -2.348634061091    0.240555048270    0.013460020903
 C   -2.842157555602   -0.998047965775    0.003129921238
 H   -3.899655468870   -1.252194587607    0.000183276812
 H   -1.981545731350   -2.973042180871   -0.011571621587
NA    0.922222637654    2.775396527846   -0.000825169598
