17

 N   -1.924180262419   -2.007617849748   -0.002589410540
 C   -0.713992195575   -1.352411646072    0.001372213428
 N    0.519420218728   -1.951089340534    0.013410498333
 C    1.489843418784   -1.060913198923    0.001538041360
 N    1.286766581371    0.300724934591   -0.005297118982
 H    2.090593706622    0.920685474346   -0.087285141404
 N    2.815298173021   -1.479587920603   -0.076809261875
 H    3.469834378353   -0.947784696203    0.490831514855
 H    2.894103260412   -2.480288064538    0.084774076114
 C    0.027492839054    0.986758638122    0.007656667695
 O   -0.000087530051    2.214931722899    0.003568539267
 C   -1.045292286922    0.013065248848    0.013857865635
 N   -2.416365588691    0.199396294161    0.013782680919
 C   -2.909889083202   -1.039206719884    0.003452581254
 H   -3.967386996470   -1.293353341716    0.000505936828
 H   -2.049277258950   -3.014200934980   -0.011248961571
NA    1.367238294118    3.045821404239   -0.002945138891
