17

 N   -1.958046026219   -2.028197226802   -0.002428080532
 C   -0.747857959375   -1.372991023126    0.001533543436
 N    0.485554454928   -1.971668717588    0.013571828341
 C    1.455977654984   -1.081492575977    0.001699371368
 N    1.252900817571    0.280145557537   -0.005135788974
 H    2.056727942822    0.900106097292   -0.087123811396
 N    2.781432409221   -1.500167297657   -0.076647931867
 H    3.435968614553   -0.968364073257    0.490992844863
 H    2.860237496612   -2.500867441592    0.084935406122
 C   -0.006372924746    0.966179261068    0.007817997703
 O   -0.033953293851    2.194352345845    0.003729869275
 C   -1.079158050722   -0.007514128206    0.014019195643
 N   -2.450231352491    0.178816917107    0.013944010927
 C   -2.943754847002   -1.059786096938    0.003613911262
 H   -4.001252760270   -1.313932718770    0.000667266836
 H   -2.083143022750   -3.034780312034   -0.011087631563
NA    1.589746122350    3.181033842436   -0.004005123538
