17

 N   -2.048354729685   -2.083075565614   -0.001997867178
 C   -0.838166662841   -1.427869361938    0.001963756790
 N    0.395245751462   -2.026547056400    0.014002041695
 C    1.365668951518   -1.136370914789    0.002129584722
 N    1.162592114105    0.225267218725   -0.004705575620
 H    1.966419239356    0.845227758480   -0.086693598042
 N    2.691123705755   -1.555045636469   -0.076217718513
 H    3.345659911087   -1.023242412069    0.491423058217
 H    2.769928793146   -2.555745780404    0.085365619476
 C   -0.096681628212    0.911300922256    0.008248211057
 O   -0.124261997317    2.139474007033    0.004160082629
 C   -1.169466754188   -0.062392467018    0.014449408997
 N   -2.540540055957    0.123938578295    0.014374224281
 C   -3.034063550468   -1.114664435750    0.004044124616
 H   -4.091561463736   -1.368811057582    0.001097480190
 H   -2.173451726216   -3.089658650846   -0.010657418209
NA    2.183100330968    3.541600344293   -0.006831749263
