17

 N   -2.070931905552   -2.096795150317   -0.001890313839
 C   -0.860743838708   -1.441588946641    0.002071310129
 N    0.372668575595   -2.040266641103    0.014109595034
 C    1.343091775651   -1.150090499492    0.002237138061
 N    1.140014938238    0.211547634022   -0.004598022281
 H    1.943842063489    0.831508173777   -0.086586044703
 N    2.668546529888   -1.568765221172   -0.076110165174
 H    3.323082735220   -1.036961996772    0.491530611556
 H    2.747351617279   -2.569465365107    0.085473172815
 C   -0.119258804079    0.897581337553    0.008355764396
 O   -0.146839173184    2.125754422330    0.004267635968
 C   -1.192043930055   -0.076112051721    0.014556962336
 N   -2.563117231824    0.110218993592    0.014481777620
 C   -3.056640726335   -1.128384020453    0.004151677955
 H   -4.114138639603   -1.382530642285    0.001205033529
 H   -2.196028902083   -3.103378235549   -0.010549864870
NA    2.331438883123    3.631741969758   -0.007538405694
