17

 N   -2.082220493485   -2.103654942669   -0.001836537170
 C   -0.872032426641   -1.448448738993    0.002125086798
 N    0.361379987662   -2.047126433455    0.014163371703
 C    1.331803187718   -1.156950291844    0.002290914730
 N    1.128726350305    0.204687841670   -0.004544245612
 H    1.932553475556    0.824648381425   -0.086532268034
 N    2.657257941955   -1.575625013524   -0.076056388505
 H    3.311794147287   -1.043821789124    0.491584388225
 H    2.736063029346   -2.576325157459    0.085526949484
 C   -0.130547392012    0.890721545201    0.008409541065
 O   -0.158127761117    2.118894629978    0.004321412637
 C   -1.203332517988   -0.082971844073    0.014610739005
 N   -2.574405819757    0.103359201240    0.014535554289
 C   -3.067929314268   -1.135243812805    0.004205454624
 H   -4.125427227536   -1.389390434637    0.001258810198
 H   -2.207317490016   -3.110238027901   -0.010496088201
NA    2.405608159200    3.676812782490   -0.007891733909
