17

 N   -2.172529196951   -2.158533281481   -0.001406323816
 C   -0.962341130107   -1.503327077805    0.002555300152
 N    0.271071284196   -2.102004772267    0.014593585057
 C    1.241494484252   -1.211828630656    0.002721128084
 N    1.038417646839    0.149809502858   -0.004114032258
 H    1.842244772090    0.769770042613   -0.086102054680
 N    2.566949238489   -1.630503352336   -0.075626175151
 H    3.221485443821   -1.098700127936    0.492014601579
 H    2.645754325880   -2.631203496271    0.085957162838
 C   -0.220856095478    0.835843206389    0.008839754419
 O   -0.248436464583    2.064016291166    0.004751625991
 C   -1.293641221454   -0.137850182885    0.015040952359
 N   -2.664714523223    0.048480862428    0.014965767643
 C   -3.158238017734   -1.190122151617    0.004635667978
 H   -4.215735931002   -1.444268773449    0.001689023552
 H   -2.297626193482   -3.165116366713   -0.010065874847
NA    2.998962367819    4.037379284348   -0.010718359634
