17

 N   -2.195106372818   -2.172252866184   -0.001298770477
 C   -0.984918305974   -1.517046662508    0.002662853491
 N    0.248494108329   -2.115724356970    0.014701138396
 C    1.218917308385   -1.225548215359    0.002828681423
 N    1.015840470972    0.136089918155   -0.004006478919
 H    1.819667596223    0.756050457910   -0.085994501341
 N    2.544372062622   -1.644222937039   -0.075518621812
 H    3.198908267954   -1.112419712639    0.492122154918
 H    2.623177150013   -2.644923080974    0.086064716177
 C   -0.243433271345    0.822123621686    0.008947307758
 O   -0.271013640450    2.050296706463    0.004859179330
 C   -1.316218397321   -0.151569767588    0.015148505698
 N   -2.687291699090    0.034761277725    0.015073320982
 C   -3.180815193601   -1.203841736320    0.004743221317
 H   -4.238313106869   -1.457988358152    0.001796576891
 H   -2.320203369349   -3.178835951416   -0.009958321508
NA    3.147300919973    4.127520909812   -0.011425016065
