17

 N   -2.206394960751   -2.179112658535   -0.001244993808
 C   -0.996206893907   -1.523906454859    0.002716630160
 N    0.237205520396   -2.122584149321    0.014754915065
 C    1.207628720452   -1.232408007710    0.002882458092
 N    1.004551883039    0.129230125804   -0.003952702250
 H    1.808379008290    0.749190665559   -0.085940724672
 N    2.533083474689   -1.651082729390   -0.075464845143
 H    3.187619680021   -1.119279504990    0.492175931587
 H    2.611888562080   -2.651782873325    0.086118492846
 C   -0.254721859278    0.815263829335    0.009001084427
 O   -0.282302228383    2.043436914112    0.004912955999
 C   -1.327506985254   -0.158429559939    0.015202282367
 N   -2.698580287023    0.027901485374    0.015127097651
 C   -3.192103781534   -1.210701528671    0.004796997986
 H   -4.249601694802   -1.464848150503    0.001850353560
 H   -2.331491957282   -3.185695743767   -0.009904544839
NA    3.221470196050    4.172591722545   -0.011778344281
