17

 N   -2.262837900418   -2.213411620293   -0.000976110461
 C   -1.052649833574   -1.558205416617    0.002985513507
 N    0.180762580729   -2.156883111079    0.015023798412
 C    1.151185780785   -1.266706969468    0.003151341439
 N    0.948108943372    0.094931164046   -0.003683818903
 H    1.751936068623    0.714891703801   -0.085671841325
 N    2.476640535022   -1.685381691148   -0.075195961796
 H    3.131176740354   -1.153578466748    0.492444814934
 H    2.555445622413   -2.686081835083    0.086387376193
 C   -0.311164798945    0.780964867577    0.009269967774
 O   -0.338745168050    2.009137952354    0.005181839346
 C   -1.383949924921   -0.192728521697    0.015471165714
 N   -2.755023226690   -0.006397476384    0.015395980998
 C   -3.248546721201   -1.245000490429    0.005065881333
 H   -4.306044634469   -1.499147112261    0.002119236907
 H   -2.387934896949   -3.219994705525   -0.009635661492
NA    3.592316576437    4.397945786206   -0.013544985359
