17

 N   -2.274126488351   -2.220271412645   -0.000922333792
 C   -1.063938421507   -1.565065208969    0.003039290176
 N    0.169473992796   -2.163742903431    0.015077575081
 C    1.139897192852   -1.273566761820    0.003205118108
 N    0.936820355439    0.088071371694   -0.003630042234
 H    1.740647480690    0.708031911449   -0.085618064656
 N    2.465351947089   -1.692241483500   -0.075142185127
 H    3.119888152421   -1.160438259100    0.492498591603
 H    2.544157034480   -2.692941627435    0.086441152862
 C   -0.322453386878    0.774105075225    0.009323744443
 O   -0.350033755983    2.002278160002    0.005235616015
 C   -1.395238512854   -0.199588314049    0.015524942383
 N   -2.766311814623   -0.013257268736    0.015449757667
 C   -3.259835309134   -1.251860282781    0.005119658002
 H   -4.317333222402   -1.506006904613    0.002173013576
 H   -2.399223484882   -3.226854497877   -0.009581884823
NA    3.666485852514    4.443016598938   -0.013898313575
