17

 N   -2.285415076284   -2.227131204996   -0.000868557123
 C   -1.075227009440   -1.571925001320    0.003093066845
 N    0.158185404863   -2.170602695782    0.015131351750
 C    1.128608604919   -1.280426554171    0.003258894777
 N    0.925531767506    0.081211579343   -0.003576265565
 H    1.729358892757    0.701172119098   -0.085564287987
 N    2.454063359156   -1.699101275851   -0.075088408458
 H    3.108599564488   -1.167298051451    0.492552368272
 H    2.532868446547   -2.699801419786    0.086494929531
 C   -0.333741974811    0.767245282874    0.009377521112
 O   -0.361322343916    1.995418367651    0.005289392684
 C   -1.406527100787   -0.206448106400    0.015578719052
 N   -2.777600402556   -0.020117061087    0.015503534336
 C   -3.271123897067   -1.258720075132    0.005173434671
 H   -4.328621810335   -1.512866696964    0.002226790245
 H   -2.410512072815   -3.233714290228   -0.009528108154
NA    3.740655128591    4.488087411670   -0.014251641790
