17

 N   -2.319280840084   -2.247710582051   -0.000707227115
 C   -1.109092773240   -1.592504378375    0.003254396853
 N    0.124319641063   -2.191182072837    0.015292681758
 C    1.094742841119   -1.301005931226    0.003420224785
 N    0.891666003706    0.060632202288   -0.003414935557
 H    1.695493128957    0.680592742043   -0.085402957979
 N    2.420197595356   -1.719680652906   -0.074927078450
 H    3.074733800688   -1.187877428506    0.492713698280
 H    2.499002682747   -2.720380796841    0.086656259539
 C   -0.367607738611    0.746665905819    0.009538851120
 O   -0.395188107716    1.974838990596    0.005450722692
 C   -1.440392864587   -0.227027483455    0.015740049060
 N   -2.811466166356   -0.040696438142    0.015664864344
 C   -3.304989660867   -1.279299452187    0.005334764679
 H   -4.362487574135   -1.533446074019    0.002388120253
 H   -2.444377836615   -3.254293667283   -0.009366778146
NA    3.963162956823    4.623299849867   -0.015311626437
