17

 N   -2.330569428017   -2.254570374402   -0.000653450446
 C   -1.120381361173   -1.599364170726    0.003308173522
 N    0.113031053130   -2.198041865188    0.015346458427
 C    1.083454253186   -1.307865723577    0.003474001454
 N    0.880377415773    0.053772409937   -0.003361158888
 H    1.684204541024    0.673732949692   -0.085349181310
 N    2.408909007423   -1.726540445257   -0.074873301781
 H    3.063445212755   -1.194737220857    0.492767474949
 H    2.487714094814   -2.727240589192    0.086710036208
 C   -0.378896326544    0.739806113468    0.009592627789
 O   -0.406476695649    1.967979198245    0.005504499361
 C   -1.451681452520   -0.233887275806    0.015793825729
 N   -2.822754754289   -0.047556230493    0.015718641013
 C   -3.316278248800   -1.286159244538    0.005388541348
 H   -4.373776162068   -1.540305866370    0.002441896922
 H   -2.455666424548   -3.261153459634   -0.009313001477
NA    4.037332232901    4.668370662599   -0.015664954653
