17

 N   -2.353146603884   -2.268289959105   -0.000545897107
 C   -1.142958537040   -1.613083755429    0.003415726861
 N    0.090453877263   -2.211761449891    0.015454011766
 C    1.060877077319   -1.321585308280    0.003581554793
 N    0.857800239906    0.040052825234   -0.003253605549
 H    1.661627365157    0.660013364989   -0.085241627971
 N    2.386331831556   -1.740260029960   -0.074765748442
 H    3.040868036888   -1.208456805560    0.492875028288
 H    2.465136918947   -2.740960173895    0.086817589547
 C   -0.401473502411    0.726086528765    0.009700181128
 O   -0.429053871516    1.954259613542    0.005612052700
 C   -1.474258628387   -0.247606860509    0.015901379068
 N   -2.845331930156   -0.061275815196    0.015826194352
 C   -3.338855424667   -1.299878829241    0.005496094687
 H   -4.396353337935   -1.554025451073    0.002549450261
 H   -2.478243600415   -3.274873044337   -0.009205448138
NA    4.185670785055    4.758512288063   -0.016371611084
