17

 N   -2.387012367684   -2.288869336160   -0.000384567099
 C   -1.176824300840   -1.633663132484    0.003577056869
 N    0.056588113463   -2.232340826946    0.015615341774
 C    1.027011313519   -1.342164685335    0.003742884801
 N    0.823934476106    0.019473448179   -0.003092275541
 H    1.627761601357    0.639433987934   -0.085080297963
 N    2.352466067756   -1.760839407015   -0.074604418434
 H    3.007002273088   -1.229036182615    0.493036358296
 H    2.431271155147   -2.761539550950    0.086978919555
 C   -0.435339266211    0.705507151710    0.009861511136
 O   -0.462919635316    1.933680236487    0.005773382708
 C   -1.508124392187   -0.268186237564    0.016062709076
 N   -2.879197693956   -0.081855192251    0.015987524360
 C   -3.372721188467   -1.320458206296    0.005657424695
 H   -4.430219101735   -1.574604828128    0.002710780269
 H   -2.512109364215   -3.295452421392   -0.009044118130
NA    4.408178613287    4.893724726260   -0.017431595730
