17

 N   -2.409589543550   -2.302588920863   -0.000277013761
 C   -1.199401476706   -1.647382717187    0.003684610207
 N    0.034010937597   -2.246060411649    0.015722895112
 C    1.004434137653   -1.355884270038    0.003850438139
 N    0.801357300240    0.005753863476   -0.002984722203
 H    1.605184425491    0.625714403231   -0.084972744625
 N    2.329888891890   -1.774558991718   -0.074496865096
 H    2.984425097222   -1.242755767318    0.493143911634
 H    2.408693979281   -2.775259135653    0.087086472893
 C   -0.457916442077    0.691787567007    0.009969064474
 O   -0.485496811182    1.919960651784    0.005880936046
 C   -1.530701568053   -0.281905822267    0.016170262414
 N   -2.901774869822   -0.095574776954    0.016095077698
 C   -3.395298364333   -1.334177790999    0.005764978033
 H   -4.452796277601   -1.588324412831    0.002818333607
 H   -2.534686540081   -3.309172006095   -0.008936564792
NA    4.556517165442    4.983866351725   -0.018138252162
