17

 N   -2.420878131484   -2.309448713214   -0.000223237091
 C   -1.210690064640   -1.654242509538    0.003738386877
 N    0.022722349663   -2.252920204000    0.015776671782
 C    0.993145549719   -1.362744062389    0.003904214809
 N    0.790068712306   -0.001105928875   -0.002930945533
 H    1.593895837557    0.618854610880   -0.084918967955
 N    2.318600303956   -1.781418784069   -0.074443088426
 H    2.973136509288   -1.249615559669    0.493197688304
 H    2.397405391347   -2.782118928004    0.087140249563
 C   -0.469205030011    0.684927774656    0.010022841144
 O   -0.496785399116    1.913100859433    0.005934712716
 C   -1.541990155987   -0.288765614618    0.016224039084
 N   -2.913063457756   -0.102434569305    0.016148854368
 C   -3.406586952267   -1.341037583350    0.005818754703
 H   -4.464084865535   -1.595184205182    0.002872110277
 H   -2.545975128015   -3.316031798446   -0.008882788122
NA    4.630686441519    5.028937164457   -0.018491580377
