17

 N   -2.432166719417   -2.316308505566   -0.000169460422
 C   -1.221978652573   -1.661102301890    0.003792163546
 N    0.011433761730   -2.259779996352    0.015830448451
 C    0.981856961786   -1.369603854741    0.003957991478
 N    0.778780124373   -0.007965721227   -0.002877168864
 H    1.582607249624    0.611994818528   -0.084865191286
 N    2.307311716023   -1.788278576421   -0.074389311757
 H    2.961847921355   -1.256475352021    0.493251464973
 H    2.386116803414   -2.788978720356    0.087194026232
 C   -0.480493617944    0.678067982304    0.010076617813
 O   -0.508073987049    1.906241067081    0.005988489385
 C   -1.553278743920   -0.295625406970    0.016277815753
 N   -2.924352045689   -0.109294361657    0.016202631037
 C   -3.417875540200   -1.347897375702    0.005872531372
 H   -4.475373453468   -1.602043997534    0.002925886946
 H   -2.557263715948   -3.322891590798   -0.008829011453
NA    4.704855717596    5.074007977189   -0.018844908593
