17

 N   -2.443455307350   -2.323168297917   -0.000115683753
 C   -1.233267240506   -1.667962094241    0.003845940215
 N    0.000145173797   -2.266639788703    0.015884225120
 C    0.970568373853   -1.376463647092    0.004011768147
 N    0.767491536440   -0.014825513578   -0.002823392195
 H    1.571318661691    0.605135026177   -0.084811414617
 N    2.296023128090   -1.795138368772   -0.074335535088
 H    2.950559333422   -1.263335144372    0.493305241642
 H    2.374828215481   -2.795838512707    0.087247802901
 C   -0.491782205877    0.671208189953    0.010130394482
 O   -0.519362574982    1.899381274730    0.006042266054
 C   -1.564567331853   -0.302485199321    0.016331592422
 N   -2.935640633622   -0.116154154008    0.016256407706
 C   -3.429164128133   -1.354757168053    0.005926308041
 H   -4.486662041401   -1.608903789885    0.002979663615
 H   -2.568552303881   -3.329751383149   -0.008775234784
NA    4.779024993674    5.119078789921   -0.019198236808
