17

 N   -2.466032483217   -2.336887882620   -0.000008130414
 C   -1.255844416373   -1.681681678944    0.003953493554
 N   -0.022432002070   -2.280359373406    0.015991778459
 C    0.947991197986   -1.390183231795    0.004119321486
 N    0.744914360573   -0.028545098281   -0.002715838856
 H    1.548741485824    0.591415441474   -0.084703861278
 N    2.273445952223   -1.808857953475   -0.074227981749
 H    2.927982157555   -1.277054729075    0.493412794981
 H    2.352251039614   -2.809558097410    0.087355356240
 C   -0.514359381744    0.657488605250    0.010237947821
 O   -0.541939750849    1.885661690027    0.006149819393
 C   -1.587144507720   -0.316204784024    0.016439145761
 N   -2.958217809489   -0.129873738711    0.016363961045
 C   -3.451741304000   -1.368476752756    0.006033861380
 H   -4.509239217268   -1.622623374588    0.003087216954
 H   -2.591129479748   -3.343470967852   -0.008667681445
NA    4.927363545828    5.209220415386   -0.019904893240
