17

 N   -2.488609659083   -2.350607467323    0.000099422925
 C   -1.278421592239   -1.695401263647    0.004061046893
 N   -0.045009177936   -2.294078958109    0.016099331798
 C    0.925414022120   -1.403902816498    0.004226874825
 N    0.722337184707   -0.042264682984   -0.002608285517
 H    1.526164309958    0.577695856771   -0.084596307939
 N    2.250868776357   -1.822577538178   -0.074120428410
 H    2.905404981689   -1.290774313778    0.493520348320
 H    2.329673863748   -2.823277682113    0.087462909579
 C   -0.536936557610    0.643769020547    0.010345501160
 O   -0.564516926715    1.871942105324    0.006257372732
 C   -1.609721683586   -0.329924368727    0.016546699100
 N   -2.980794985355   -0.143593323414    0.016471514384
 C   -3.474318479866   -1.382196337459    0.006141414719
 H   -4.531816393134   -1.636342959291    0.003194770293
 H   -2.613706655614   -3.357190552555   -0.008560128106
NA    5.075702097983    5.299362040850   -0.020611549671
