17

 N   -2.499898247017   -2.357467259675    0.000153199594
 C   -1.289710180173   -1.702261055999    0.004114823562
 N   -0.056297765870   -2.300938750461    0.016153108467
 C    0.914125434186   -1.410762608850    0.004280651494
 N    0.711048596773   -0.049124475336   -0.002554508848
 H    1.514875722024    0.570836064419   -0.084542531270
 N    2.239580188423   -1.829437330530   -0.074066651741
 H    2.894116393755   -1.297634106130    0.493574124989
 H    2.318385275814   -2.830137474465    0.087516686248
 C   -0.548225145544    0.636909228195    0.010399277829
 O   -0.575805514649    1.865082312972    0.006311149401
 C   -1.621010271520   -0.336784161079    0.016600475769
 N   -2.992083573289   -0.150453115766    0.016525291053
 C   -3.485607067800   -1.389056129811    0.006195191388
 H   -4.543104981068   -1.643202751643    0.003248546962
 H   -2.624995243548   -3.364050344907   -0.008506351437
NA    5.149871374060    5.344432853582   -0.020964877886
