17

 N   -2.511186834950   -2.364327052026    0.000206976263
 C   -1.300998768106   -1.709120848350    0.004168600231
 N   -0.067586353803   -2.307798542812    0.016206885136
 C    0.902836846253   -1.417622401201    0.004334428163
 N    0.699760008840   -0.055984267687   -0.002500732179
 H    1.503587134091    0.563976272068   -0.084488754601
 N    2.228291600490   -1.836297122881   -0.074012875072
 H    2.882827805822   -1.304493898481    0.493627901658
 H    2.307096687881   -2.836997266816    0.087570462917
 C   -0.559513733477    0.630049435844    0.010453054498
 O   -0.587094102582    1.858222520621    0.006364926070
 C   -1.632298859453   -0.343643953430    0.016654252438
 N   -3.003372161222   -0.157312908117    0.016579067722
 C   -3.496895655733   -1.395915922162    0.006248968057
 H   -4.554393569001   -1.650062543994    0.003302323631
 H   -2.636283831481   -3.370910137258   -0.008452574768
NA    5.224040650137    5.389503666315   -0.021318206102
