17

 N   -2.522475422883   -2.371186844378    0.000260752932
 C   -1.312287356039   -1.715980640702    0.004222376900
 N   -0.078874941736   -2.314658335164    0.016260661805
 C    0.891548258320   -1.424482193553    0.004388204832
 N    0.688471420907   -0.062844060039   -0.002446955510
 H    1.492298546158    0.557116479716   -0.084434977932
 N    2.217003012557   -1.843156915233   -0.073959098403
 H    2.871539217889   -1.311353690833    0.493681678327
 H    2.295808099948   -2.843857059168    0.087624239586
 C   -0.570802321410    0.623189643492    0.010506831167
 O   -0.598382690515    1.851362728269    0.006418702739
 C   -1.643587447386   -0.350503745782    0.016708029107
 N   -3.014660749155   -0.164172700469    0.016632844391
 C   -3.508184243666   -1.402775714514    0.006302744726
 H   -4.565682156934   -1.656922336346    0.003356100300
 H   -2.647572419414   -3.377769929610   -0.008398798099
NA    5.298209926215    5.434574479047   -0.021671534318
