17

 N   -2.545052598750   -2.384906429081    0.000368306271
 C   -1.334864531906   -1.729700225405    0.004329930239
 N   -0.101452117603   -2.328377919867    0.016368215144
 C    0.868971082453   -1.438201778256    0.004495758171
 N    0.665894245040   -0.076563644742   -0.002339402171
 H    1.469721370291    0.543396895013   -0.084327424593
 N    2.194425836690   -1.856876499936   -0.073851545064
 H    2.848962042022   -1.325073275536    0.493789231666
 H    2.273230924081   -2.857576643871    0.087731792925
 C   -0.593379497277    0.609470058789    0.010614384506
 O   -0.620959866382    1.837643143566    0.006526256078
 C   -1.666164623253   -0.364223330485    0.016815582446
 N   -3.037237925022   -0.177892285172    0.016740397730
 C   -3.530761419533   -1.416495299217    0.006410298065
 H   -4.588259332801   -1.670641921049    0.003463653639
 H   -2.670149595281   -3.391489514313   -0.008291244760
NA    5.446548478369    5.524716104511   -0.022378190749
