17

 N   -2.556341186683   -2.391766221432    0.000422082940
 C   -1.346153119839   -1.736560017756    0.004383706908
 N   -0.112740705536   -2.335237712218    0.016421991813
 C    0.857682494520   -1.445061570607    0.004549534840
 N    0.654605657107   -0.083423437093   -0.002285625502
 H    1.458432782358    0.536537102662   -0.084273647924
 N    2.183137248757   -1.863736292287   -0.073797768395
 H    2.837673454089   -1.331933067887    0.493843008335
 H    2.261942336148   -2.864436436222    0.087785569594
 C   -0.604668085210    0.602610266438    0.010668161175
 O   -0.632248454315    1.830783351215    0.006580032747
 C   -1.677453211186   -0.371083122836    0.016869359115
 N   -3.048526512955   -0.184752077523    0.016794174399
 C   -3.542050007466   -1.423355091568    0.006464074734
 H   -4.599547920734   -1.677501713400    0.003517430308
 H   -2.681438183214   -3.398349306664   -0.008237468091
NA    5.520717754447    5.569786917243   -0.022731518964
