17

 N   -2.578918362550   -2.405485806135    0.000529636279
 C   -1.368730295706   -1.750279602459    0.004491260247
 N   -0.135317881403   -2.348957296921    0.016529545152
 C    0.835105318653   -1.458781155310    0.004657088179
 N    0.632028481240   -0.097143021796   -0.002178072163
 H    1.435855606491    0.522817517959   -0.084166094585
 N    2.160560072890   -1.877455876990   -0.073690215056
 H    2.815096278222   -1.345652652590    0.493950561674
 H    2.239365160281   -2.878156020925    0.087893122933
 C   -0.627245261077    0.588890681735    0.010775714514
 O   -0.654825630182    1.817063766512    0.006687586086
 C   -1.700030387053   -0.384802707539    0.016976912454
 N   -3.071103688822   -0.198471662226    0.016901727738
 C   -3.564627183333   -1.437074676271    0.006571628073
 H   -4.622125096601   -1.691221298103    0.003624983647
 H   -2.704015359081   -3.412068891367   -0.008129914752
NA    5.669056306601    5.659928542708   -0.023438175396
