17

 N   -2.590206950483   -2.412345598487    0.000583412948
 C   -1.380018883639   -1.757139394811    0.004545036916
 N   -0.146606469336   -2.355817089273    0.016583321821
 C    0.823816730720   -1.465640947662    0.004710864848
 N    0.620739893307   -0.104002814148   -0.002124295494
 H    1.424567018558    0.515957725607   -0.084112317916
 N    2.149271484957   -1.884315669342   -0.073636438387
 H    2.803807690289   -1.352512444942    0.494004338343
 H    2.228076572348   -2.885015813277    0.087946899602
 C   -0.638533849010    0.582030889383    0.010829491183
 O   -0.666114218115    1.810203974160    0.006741362755
 C   -1.711318974986   -0.391662499891    0.017030689123
 N   -3.082392276755   -0.205331454578    0.016955504407
 C   -3.575915771266   -1.443934468623    0.006625404742
 H   -4.633413684534   -1.698081090455    0.003678760316
 H   -2.715303947014   -3.418928683719   -0.008076138083
NA    5.743225582678    5.704999355440   -0.023791503611
