17

 N   -2.646649890149   -2.446644560244    0.000852296295
 C   -1.436461823305   -1.791438356568    0.004813920263
 N   -0.203049409002   -2.390116051030    0.016852205168
 C    0.767373791054   -1.499939909419    0.004979748195
 N    0.564296953641   -0.138301775905   -0.001855412147
 H    1.368124078892    0.481658763850   -0.083843434569
 N    2.092828545291   -1.918614631099   -0.073367555040
 H    2.747364750623   -1.386811406699    0.494273221690
 H    2.171633632682   -2.919314775034    0.088215782949
 C   -0.694976788676    0.547731927626    0.011098374530
 O   -0.722557157781    1.775905012403    0.007010246102
 C   -1.767761914652   -0.425961461648    0.017299572470
 N   -3.138835216421   -0.239630416335    0.017224387754
 C   -3.632358710932   -1.478233430380    0.006894288089
 H   -4.689856624200   -1.732380052212    0.003947643663
 H   -2.771746886680   -3.453227645476   -0.007807254736
NA    6.114071963065    5.930353419101   -0.025558144689
