17

 N   -2.680515653949   -2.467223937299    0.001013626302
 C   -1.470327587105   -1.812017733623    0.004975250270
 N   -0.236915172802   -2.410695428085    0.017013535175
 C    0.733508027254   -1.520519286474    0.005141078202
 N    0.530431189841   -0.158881152960   -0.001694082140
 H    1.334258315092    0.461079386795   -0.083682104562
 N    2.058962781491   -1.939194008154   -0.073206225033
 H    2.713498986823   -1.407390783754    0.494434551697
 H    2.137767868882   -2.939894152089    0.088377112956
 C   -0.728842552476    0.527152550571    0.011259704537
 O   -0.756422921581    1.755325635348    0.007171576109
 C   -1.801627678452   -0.446540838703    0.017460902477
 N   -3.172700980221   -0.260209793390    0.017385717761
 C   -3.666224474732   -1.498812807435    0.007055618096
 H   -4.723722388000   -1.752959429267    0.004108973670
 H   -2.805612650480   -3.473807022531   -0.007645924729
NA    6.336579791297    6.065565857298   -0.026618129336
