17

 N   -2.703092829816   -2.480943522002    0.001121179641
 C   -1.492904762972   -1.825737318326    0.005082803609
 N   -0.259492348669   -2.424415012788    0.017121088514
 C    0.710930851387   -1.534238871177    0.005248631541
 N    0.507854013974   -0.172600737663   -0.001586528801
 H    1.311681139225    0.447359802092   -0.083574551223
 N    2.036385605624   -1.952913592857   -0.073098671694
 H    2.690921810956   -1.421110368457    0.494542105036
 H    2.115190693015   -2.953613736792    0.088484666295
 C   -0.751419728343    0.513432965868    0.011367257876
 O   -0.779000097448    1.741606050645    0.007279129448
 C   -1.824204854319   -0.460260423406    0.017568455816
 N   -3.195278156088   -0.273929378093    0.017493271100
 C   -3.688801650599   -1.512532392138    0.007163171435
 H   -4.746299563867   -1.766679013970    0.004216527009
 H   -2.828189826347   -3.487526607234   -0.007538371390
NA    6.484918343451    6.155707482762   -0.027324785767
