17

 N   -2.736958593615   -2.501522899056    0.001282509649
 C   -1.526770526771   -1.846316695380    0.005244133617
 N   -0.293358112468   -2.444994389842    0.017282418522
 C    0.677065087588   -1.554818248231    0.005409961549
 N    0.473988250175   -0.193180114717   -0.001425198793
 H    1.277815375426    0.426780425038   -0.083413221215
 N    2.002519841825   -1.973492969911   -0.072937341686
 H    2.657056047157   -1.441689745511    0.494703435044
 H    2.081324929216   -2.974193113846    0.088645996303
 C   -0.785285492142    0.492853588814    0.011528587884
 O   -0.812865861247    1.721026673591    0.007440459456
 C   -1.858070618118   -0.480839800460    0.017729785824
 N   -3.229143919887   -0.294508755147    0.017654601108
 C   -3.722667414398   -1.533111769192    0.007324501443
 H   -4.780165327666   -1.787258391024    0.004377857017
 H   -2.862055590146   -3.508105984288   -0.007377041382
NA    6.707426171683    6.290919920959   -0.028384770414
