17

 N   -2.748247181549   -2.508382691408    0.001336286318
 C   -1.538059114705   -1.853176487732    0.005297910286
 N   -0.304646700402   -2.451854182194    0.017336195191
 C    0.665776499654   -1.561678040583    0.005463738218
 N    0.462699662241   -0.200039907069   -0.001371422124
 H    1.266526787492    0.419920632686   -0.083359444546
 N    1.991231253891   -1.980352762263   -0.072883565017
 H    2.645767459223   -1.448549537863    0.494757211713
 H    2.070036341282   -2.981052906198    0.088699772972
 C   -0.796574080076    0.485993796462    0.011582364553
 O   -0.824154449181    1.714166881239    0.007494236125
 C   -1.869359206052   -0.487699592812    0.017783562493
 N   -3.240432507821   -0.301368547499    0.017708377777
 C   -3.733956002332   -1.539971561544    0.007378278112
 H   -4.791453915600   -1.794118183376    0.004431633686
 H   -2.873344178080   -3.514965776640   -0.007323264713
NA    6.781595447761    6.335990733691   -0.028738098629
