17

 N   -2.759535769482   -2.515242483760    0.001390062987
 C   -1.549347702638   -1.860036280084    0.005351686955
 N   -0.315935288335   -2.458713974546    0.017389971860
 C    0.654487911721   -1.568537832935    0.005517514887
 N    0.451411074308   -0.206899699421   -0.001317645455
 H    1.255238199559    0.413060840334   -0.083305667877
 N    1.979942665958   -1.987212554615   -0.072829788348
 H    2.634478871290   -1.455409330215    0.494810988382
 H    2.058747753349   -2.987912698550    0.088753549641
 C   -0.807862668009    0.479134004110    0.011636141222
 O   -0.835443037114    1.707307088887    0.007548012794
 C   -1.880647793985   -0.494559385164    0.017837339162
 N   -3.251721095754   -0.308228339851    0.017762154446
 C   -3.745244590265   -1.546831353896    0.007432054781
 H   -4.802742503533   -1.800977975728    0.004485410355
 H   -2.884632766013   -3.521825568992   -0.007269488044
NA    6.855764723838    6.381061546423   -0.029091426845
