17

 N   -2.782112945349   -2.528962068463    0.001497616326
 C   -1.571924878505   -1.873755864787    0.005459240294
 N   -0.338512464202   -2.472433559249    0.017497525199
 C    0.631910735854   -1.582257417638    0.005625068226
 N    0.428833898441   -0.220619284124   -0.001210092116
 H    1.232661023692    0.399341255631   -0.083198114538
 N    1.957365490091   -2.000932139318   -0.072722235009
 H    2.611901695423   -1.469128914918    0.494918541721
 H    2.036170577482   -3.001632283253    0.088861102980
 C   -0.830439843876    0.465414419407    0.011743694561
 O   -0.858020212981    1.693587504184    0.007655566133
 C   -1.903224969852   -0.508278969867    0.017944892501
 N   -3.274298271621   -0.321947924554    0.017869707785
 C   -3.767821766132   -1.560550938599    0.007539608120
 H   -4.825319679400   -1.814697560431    0.004592963694
 H   -2.907209941880   -3.535545153695   -0.007161934705
NA    7.004103275992    6.471203171888   -0.029798083276
