17

 N   -2.804690121215   -2.542681653166    0.001605169665
 C   -1.594502054371   -1.887475449490    0.005566793633
 N   -0.361089640068   -2.486153143952    0.017605078538
 C    0.609333559988   -1.595977002341    0.005732621565
 N    0.406256722575   -0.234338868827   -0.001102538777
 H    1.210083847826    0.385621670928   -0.083090561199
 N    1.934788314225   -2.014651724021   -0.072614681670
 H    2.589324519557   -1.482848499621    0.495026095060
 H    2.013593401616   -3.015351867956    0.088968656319
 C   -0.853017019742    0.451694834704    0.011851247900
 O   -0.880597388847    1.679867919481    0.007763119472
 C   -1.925802145718   -0.521998554570    0.018052445840
 N   -3.296875447487   -0.335667509257    0.017977261124
 C   -3.790398941998   -1.574270523302    0.007647161459
 H   -4.847896855266   -1.828417145134    0.004700517033
 H   -2.929787117746   -3.549264738398   -0.007054381366
NA    7.152441828147    6.561344797352   -0.030504739707
