17

 N   -2.861133060882   -2.576980614923    0.001874053011
 C   -1.650944994038   -1.921774411247    0.005835676979
 N   -0.417532579735   -2.520452105709    0.017873961884
 C    0.552890620321   -1.630275964098    0.006001504911
 N    0.349813782908   -0.268637830584   -0.000833655431
 H    1.153640908159    0.351322709171   -0.082821677853
 N    1.878345374558   -2.048950685778   -0.072345798324
 H    2.532881579890   -1.517147461378    0.495294978406
 H    1.957150461949   -3.049650829713    0.089237539665
 C   -0.909459959409    0.417395872947    0.012120131246
 O   -0.937040328514    1.645568957724    0.008032002818
 C   -1.982245085385   -0.556297516327    0.018321329186
 N   -3.353318387154   -0.369966471014    0.018246144470
 C   -3.846841881665   -1.608569485059    0.007916044805
 H   -4.904339794933   -1.862716106891    0.004969400379
 H   -2.986230057413   -3.583563700155   -0.006785498020
NA    7.523288208533    6.786698861013   -0.032271380785
