13

 N   -0.540262894357    0.469110795359   -0.542514107407
 C    0.633476688726    1.196482986869   -0.542826586577
 H    0.515759828663    2.281801445913   -0.542942434136
 C   -0.586038867437   -0.924100996508   -0.542899161976
 O   -1.637627035993   -1.558204310349   -0.542555794872
 N    0.674401673704   -1.507571052640   -0.542482258654
 H    0.684217470827   -2.525856164506   -0.542509562749
 C    1.935655962937   -0.871515565677   -0.542465163818
 O    2.969348891005   -1.540779400093   -0.543210829482
 C    1.854177171177    0.589031495713   -0.542965061265
 H    2.777577309479    1.166091754579   -0.543305738042
 H   -1.444000070305    0.928764916719   -0.542715759007
CS   -0.540081409094    0.469247537905    0.457485866775
