13

 N   -0.540282589872    0.469095955505   -0.651038148999
 C    0.633456993211    1.196468147015   -0.651350628169
 H    0.515740133148    2.281786606059   -0.651466475728
 C   -0.586058562952   -0.924115836362   -0.651423203568
 O   -1.637646731508   -1.558219150203   -0.651079836464
 N    0.674381978189   -1.507585892494   -0.651006300246
 H    0.684197775312   -2.525871004360   -0.651033604341
 C    1.935636267422   -0.871530405531   -0.650989205410
 O    2.969329195490   -1.540794239947   -0.651734871074
 C    1.854157475662    0.589016655859   -0.651489102857
 H    2.777557613964    1.166076914725   -0.651829779634
 H   -1.444019765820    0.928750076865   -0.651239800599
CS   -0.540064807556    0.469260046560    0.548961820019
