13

 N   -0.540341676416    0.469051435943   -0.976610273776
 C    0.633397906667    1.196423627453   -0.976922752946
 H    0.515681046604    2.281742086497   -0.977038600505
 C   -0.586117649496   -0.924160355924   -0.976995328345
 O   -1.637705818052   -1.558263669765   -0.976651961241
 N    0.674322891645   -1.507630412056   -0.976578425023
 H    0.684138688768   -2.525915523922   -0.976605729118
 C    1.935577180878   -0.871574925093   -0.976561330187
 O    2.969270108946   -1.540838759509   -0.977306995851
 C    1.854098389118    0.588972136297   -0.977061227634
 H    2.777498527420    1.166032395163   -0.977401904411
 H   -1.444078852364    0.928705557303   -0.976811925376
CS   -0.540015002943    0.469297572525    0.823389679752
