13

 N   -0.540459849504    0.468962396818   -1.627754523328
 C    0.633279733579    1.196334588328   -1.628067002498
 H    0.515562873516    2.281653047372   -1.628182850057
 C   -0.586235822584   -0.924249395049   -1.628139577897
 O   -1.637823991140   -1.558352708890   -1.627796210793
 N    0.674204718557   -1.507719451181   -1.627722674575
 H    0.684020515680   -2.526004563047   -1.627749978670
 C    1.935459007790   -0.871663964218   -1.627705579739
 O    2.969151935858   -1.540927798634   -1.628451245403
 C    1.853980216030    0.588883097172   -1.628205477186
 H    2.777380354332    1.165943356038   -1.628546153963
 H   -1.444197025452    0.928616518178   -1.627956174928
CS   -0.539915393716    0.469372624456    1.372245399218
