13

 N   -0.540469697262    0.468954976891   -1.682016544124
 C    0.633269885821    1.196327168401   -1.682329023294
 H    0.515553025758    2.281645627445   -1.682444870853
 C   -0.586245670342   -0.924256814976   -1.682401598693
 O   -1.637833838898   -1.558360128817   -1.682058231589
 N    0.674194870799   -1.507726871108   -1.681984695371
 H    0.684010667922   -2.526011982974   -1.682011999466
 C    1.935449160032   -0.871671384145   -1.681967600535
 O    2.969142088100   -1.540935218561   -1.682713266199
 C    1.853970368272    0.588875677245   -1.682467497982
 H    2.777370506574    1.165935936111   -1.682808174759
 H   -1.444206873210    0.928609098251   -1.682218195724
CS   -0.539907092947    0.469378878783    1.417983375841
