13

 N   -0.540479545019    0.468947556964   -1.736278564921
 C    0.633260038064    1.196319748474   -1.736591044091
 H    0.515543178001    2.281638207518   -1.736706891650
 C   -0.586255518099   -0.924264234903   -1.736663619490
 O   -1.637843686655   -1.558367548744   -1.736320252386
 N    0.674185023042   -1.507734291035   -1.736246716168
 H    0.684000820165   -2.526019402901   -1.736274020263
 C    1.935439312275   -0.871678804072   -1.736229621332
 O    2.969132240343   -1.540942638488   -1.736975286996
 C    1.853960520515    0.588868257318   -1.736729518779
 H    2.777360658817    1.165928516184   -1.737070195556
 H   -1.444216720967    0.928601678324   -1.736480216521
CS   -0.539898792178    0.469385133111    1.463721352463
