13

 N   -0.540489392776    0.468940137037   -1.790540585717
 C    0.633250190307    1.196312328547   -1.790853064887
 H    0.515533330244    2.281630787591   -1.790968912446
 C   -0.586265365856   -0.924271654830   -1.790925640286
 O   -1.637853534412   -1.558374968671   -1.790582273182
 N    0.674175175285   -1.507741710962   -1.790508736964
 H    0.683990972408   -2.526026822828   -1.790536041059
 C    1.935429464518   -0.871686223999   -1.790491642128
 O    2.969122392586   -1.540950058415   -1.791237307792
 C    1.853950672758    0.588860837391   -1.790991539575
 H    2.777350811060    1.165921096257   -1.791332216352
 H   -1.444226568724    0.928594258397   -1.790742237317
CS   -0.539890491409    0.469391387438    1.509459329085
