13

 N   -0.540518936048    0.468917877256   -1.953326648105
 C    0.633220647035    1.196290068766   -1.953639127275
 H    0.515503786972    2.281608527810   -1.953754974834
 C   -0.586294909128   -0.924293914611   -1.953711702674
 O   -1.637883077684   -1.558397228452   -1.953368335570
 N    0.674145632013   -1.507763970743   -1.953294799352
 H    0.683961429136   -2.526049082609   -1.953322103447
 C    1.935399921246   -0.871708483780   -1.953277704516
 O    2.969092849314   -1.540972318196   -1.954023370180
 C    1.853921129486    0.588838577610   -1.953777601963
 H    2.777321267788    1.165898836476   -1.954118278740
 H   -1.444256111996    0.928571998616   -1.953528299705
CS   -0.539865589102    0.469410150421    1.646673258951
