13

 N   -0.540528783806    0.468910457329   -2.007588668901
 C    0.633210799277    1.196282648839   -2.007901148071
 H    0.515493939214    2.281601107883   -2.008016995630
 C   -0.586304756886   -0.924301334538   -2.007973723470
 O   -1.637892925442   -1.558404648379   -2.007630356366
 N    0.674135784255   -1.507771390670   -2.007556820148
 H    0.683951581378   -2.526056502536   -2.007584124243
 C    1.935390073488   -0.871715903707   -2.007539725312
 O    2.969083001556   -1.540979738123   -2.008285390976
 C    1.853911281728    0.588831157683   -2.008039622759
 H    2.777311420030    1.165891416549   -2.008380299536
 H   -1.444265959754    0.928564578689   -2.007790320501
CS   -0.539857288333    0.469416404749    1.692411235574
