13

 N   -0.540568174835    0.468880777621   -2.224636752085
 C    0.633171408248    1.196252969131   -2.224949231255
 H    0.515454548185    2.281571428175   -2.225065078814
 C   -0.586344147915   -0.924331014246   -2.225021806654
 O   -1.637932316471   -1.558434328087   -2.224678439550
 N    0.674096393226   -1.507801070378   -2.224604903332
 H    0.683912190349   -2.526086182244   -2.224632207427
 C    1.935350682459   -0.871745583415   -2.224587808496
 O    2.969043610527   -1.541009417831   -2.225333474160
 C    1.853871890699    0.588801477975   -2.225087705943
 H    2.777272029001    1.165861736841   -2.225428382720
 H   -1.444305350783    0.928534898981   -2.224838403685
CS   -0.539824085258    0.469441422059    1.875363142062
