13

 N   -0.540587870350    0.468865937766   -2.333160793677
 C    0.633151712733    1.196238129276   -2.333473272847
 H    0.515434852670    2.281556588320   -2.333589120406
 C   -0.586363843430   -0.924345854101   -2.333545848246
 O   -1.637952011986   -1.558449167942   -2.333202481142
 N    0.674076697711   -1.507815910233   -2.333128944924
 H    0.683892494834   -2.526101022099   -2.333156249019
 C    1.935330986944   -0.871760423270   -2.333111850088
 O    2.969023915012   -1.541024257686   -2.333857515752
 C    1.853852195184    0.588786638120   -2.333611747535
 H    2.777252333486    1.165846896986   -2.333952424312
 H   -1.444325046298    0.928520059126   -2.333362445277
CS   -0.539807483720    0.469453930714    1.966839095307
