13

 N   -0.540597718107    0.468858517839   -2.387422814473
 C    0.633141864976    1.196230709349   -2.387735293643
 H    0.515425004913    2.281549168393   -2.387851141202
 C   -0.586373691187   -0.924353274028   -2.387807869042
 O   -1.637961859743   -1.558456587869   -2.387464501938
 N    0.674066849954   -1.507823330160   -2.387390965720
 H    0.683882647077   -2.526108442026   -2.387418269815
 C    1.935321139187   -0.871767843197   -2.387373870884
 O    2.969014067255   -1.541031677613   -2.388119536548
 C    1.853842347427    0.588779218193   -2.387873768331
 H    2.777242485729    1.165839477059   -2.388214445108
 H   -1.444334894055    0.928512639199   -2.387624466073
CS   -0.539799182951    0.469460185041    2.012577071929
