13

 N   -0.540617413622    0.468843677985   -2.495946856065
 C    0.633122169461    1.196215869495   -2.496259335235
 H    0.515405309398    2.281534328539   -2.496375182794
 C   -0.586393386702   -0.924368113882   -2.496331910634
 O   -1.637981555258   -1.558471427723   -2.495988543530
 N    0.674047154439   -1.507838170014   -2.495915007312
 H    0.683862951562   -2.526123281880   -2.495942311407
 C    1.935301443672   -0.871782683051   -2.495897912476
 O    2.968994371740   -1.541046517467   -2.496643578140
 C    1.853822651912    0.588764378339   -2.496397809923
 H    2.777222790214    1.165824637205   -2.496738486700
 H   -1.444354589570    0.928497799345   -2.496148507665
CS   -0.539782581413    0.469472693696    2.104053025173
