13

 N   -0.540637109137    0.468828838131   -2.604470897657
 C    0.633102473946    1.196201029641   -2.604783376827
 H    0.515385613883    2.281519488685   -2.604899224386
 C   -0.586413082217   -0.924382953736   -2.604855952226
 O   -1.638001250773   -1.558486267577   -2.604512585122
 N    0.674027458924   -1.507853009868   -2.604439048904
 H    0.683843256047   -2.526138121734   -2.604466352999
 C    1.935281748157   -0.871797522905   -2.604421954068
 O    2.968974676225   -1.541061357321   -2.605167619732
 C    1.853802956397    0.588749538485   -2.604921851515
 H    2.777203094699    1.165809797351   -2.605262528292
 H   -1.444374285085    0.928482959491   -2.604672549257
CS   -0.539765979875    0.469485202351    2.195528978418
