13

 N   -0.540656804651    0.468813998277   -2.712994939250
 C    0.633082778432    1.196186189787   -2.713307418420
 H    0.515365918369    2.281504648831   -2.713423265979
 C   -0.586432777731   -0.924397793590   -2.713379993819
 O   -1.638020946287   -1.558501107431   -2.713036626715
 N    0.674007763410   -1.507867849722   -2.712963090497
 H    0.683823560533   -2.526152961588   -2.712990394592
 C    1.935262052643   -0.871812362759   -2.712945995661
 O    2.968954980711   -1.541076197175   -2.713691661325
 C    1.853783260883    0.588734698631   -2.713445893108
 H    2.777183399185    1.165794957497   -2.713786569885
 H   -1.444393980599    0.928468119637   -2.713196590850
CS   -0.539749378337    0.469497711006    2.287004931662
