13

 N   -0.540666652409    0.468806578350   -2.767256960046
 C    0.633072930674    1.196178769860   -2.767569439216
 H    0.515356070611    2.281497228904   -2.767685286775
 C   -0.586442625489   -0.924405213517   -2.767642014615
 O   -1.638030794045   -1.558508527358   -2.767298647511
 N    0.673997915652   -1.507875269649   -2.767225111293
 H    0.683813712775   -2.526160381515   -2.767252415388
 C    1.935252204885   -0.871819782686   -2.767208016457
 O    2.968945132953   -1.541083617102   -2.767953682121
 C    1.853773413125    0.588727278704   -2.767707913904
 H    2.777173551427    1.165787537570   -2.768048590681
 H   -1.444403828357    0.928460699710   -2.767458611646
CS   -0.539741077569    0.469503965334    2.332742908284
