13

 N   -0.540804521012    0.468702699371   -3.526925251190
 C    0.632935062071    1.196074890881   -3.527237730360
 H    0.515218202008    2.281393349925   -3.527353577919
 C   -0.586580494092   -0.924509092496   -3.527310305759
 O   -1.638168662648   -1.558612406337   -3.526966938655
 N    0.673860047049   -1.507979148628   -3.526893402437
 H    0.683675844172   -2.526264260494   -3.526920706532
 C    1.935114336282   -0.871923661665   -3.526876307601
 O    2.968807264350   -1.541187496081   -3.527621973265
 C    1.853635544522    0.588623399725   -3.527376205048
 H    2.777035682824    1.165683658591   -3.527716881825
 H   -1.444541696960    0.928356820731   -3.527126902790
CS   -0.539624866804    0.469591525919    2.973074580995
