13

 N   -0.540814368769    0.468695279444   -3.581187271986
 C    0.632925214314    1.196067470954   -3.581499751156
 H    0.515208354251    2.281385929998   -3.581615598715
 C   -0.586590341849   -0.924516512423   -3.581572326555
 O   -1.638178510405   -1.558619826264   -3.581228959451
 N    0.673850199292   -1.507986568555   -3.581155423233
 H    0.683665996415   -2.526271680421   -3.581182727328
 C    1.935104488525   -0.871931081592   -3.581138328397
 O    2.968797416593   -1.541194916008   -3.581883994061
 C    1.853625696765    0.588615979798   -3.581638225844
 H    2.777025835067    1.165676238664   -3.581978902621
 H   -1.444551544717    0.928349400804   -3.581388923586
CS   -0.539616566035    0.469597780247    3.018812557617
