13

 N   -0.540942389615    0.468598820392   -4.286593542335
 C    0.632797193468    1.195971011902   -4.286906021505
 H    0.515080333405    2.281289470946   -4.287021869064
 C   -0.586718362695   -0.924612971475   -4.286978596904
 O   -1.638306531251   -1.558716285316   -4.286635229800
 N    0.673722178446   -1.508083027607   -4.286561693582
 H    0.683537975569   -2.526368139473   -4.286588997677
 C    1.934976467679   -0.872027540644   -4.286544598746
 O    2.968669395747   -1.541291375060   -4.287290264410
 C    1.853497675919    0.588519520746   -4.287044496193
 H    2.776897814221    1.165579779612   -4.287385172970
 H   -1.444679565563    0.928252941752   -4.286795193935
CS   -0.539508656039    0.469679086505    3.613406253705
