13

 N   -0.540981780644    0.468569140684   -4.503641625519
 C    0.632757802439    1.195941332194   -4.503954104689
 H    0.515040942376    2.281259791238   -4.504069952248
 C   -0.586757753724   -0.924642651183   -4.504026680088
 O   -1.638345922280   -1.558745965024   -4.503683312984
 N    0.673682787417   -1.508112707315   -4.503609776766
 H    0.683498584540   -2.526397819181   -4.503637080861
 C    1.934937076650   -0.872057220352   -4.503592681930
 O    2.968630004718   -1.541321054768   -4.504338347594
 C    1.853458284890    0.588489841038   -4.504092579377
 H    2.776858423192    1.165550099904   -4.504433256154
 H   -1.444718956592    0.928223262044   -4.503843277119
CS   -0.539475452963    0.469704103815    3.796358160194
