13

 N   -0.541001476159    0.468554300830   -4.612165667111
 C    0.632738106924    1.195926492340   -4.612478146281
 H    0.515021246861    2.281244951384   -4.612593993840
 C   -0.586777449239   -0.924657491037   -4.612550721680
 O   -1.638365617795   -1.558760804878   -4.612207354576
 N    0.673663091902   -1.508127547169   -4.612133818358
 H    0.683478889025   -2.526412659035   -4.612161122453
 C    1.934917381135   -0.872072060206   -4.612116723522
 O    2.968610309203   -1.541335894622   -4.612862389186
 C    1.853438589375    0.588475001184   -4.612616620969
 H    2.776838727677    1.165535260050   -4.612957297746
 H   -1.444738652107    0.928208422190   -4.612367318711
CS   -0.539458851425    0.469716612470    3.887834113438
