13

 N   -0.541021171674    0.468539460976   -4.720689708704
 C    0.632718411409    1.195911652486   -4.721002187874
 H    0.515001551346    2.281230111530   -4.721118035433
 C   -0.586797144754   -0.924672330891   -4.721074763273
 O   -1.638385313310   -1.558775644732   -4.720731396169
 N    0.673643396387   -1.508142387023   -4.720657859951
 H    0.683459193510   -2.526427498889   -4.720685164046
 C    1.934897685620   -0.872086900060   -4.720640765115
 O    2.968590613688   -1.541350734476   -4.721386430779
 C    1.853418893860    0.588460161330   -4.721140662562
 H    2.776819032162    1.165520420196   -4.721481339339
 H   -1.444758347622    0.928193582336   -4.720891360304
CS   -0.539442249887    0.469729121125    3.979310066682
