13

 N   -0.541080258218    0.468494941413   -5.046261833480
 C    0.632659324865    1.195867132923   -5.046574312650
 H    0.514942464802    2.281185591967   -5.046690160209
 C   -0.586856231298   -0.924716850454   -5.046646888049
 O   -1.638444399854   -1.558820164295   -5.046303520945
 N    0.673584309843   -1.508186906586   -5.046229984727
 H    0.683400106966   -2.526472018452   -5.046257288822
 C    1.934838599076   -0.872131419623   -5.046212889891
 O    2.968531527144   -1.541395254039   -5.046958555555
 C    1.853359807316    0.588415641767   -5.046712787338
 H    2.776759945618    1.165475900633   -5.047053464115
 H   -1.444817434166    0.928149062773   -5.046463485080
CS   -0.539392445274    0.469766647090    4.253737926415
