13

 N   -0.541099953732    0.468480101559   -5.154785875072
 C    0.632639629351    1.195852293069   -5.155098354242
 H    0.514922769288    2.281170752113   -5.155214201801
 C   -0.586875926812   -0.924731690308   -5.155170929641
 O   -1.638464095368   -1.558835004149   -5.154827562537
 N    0.673564614329   -1.508201746440   -5.154754026319
 H    0.683380411452   -2.526486858306   -5.154781330414
 C    1.934818903562   -0.872146259477   -5.154736931483
 O    2.968511831630   -1.541410093893   -5.155482597147
 C    1.853340111802    0.588400801913   -5.155236828930
 H    2.776740250104    1.165461060779   -5.155577505707
 H   -1.444837129680    0.928134222919   -5.154987526672
CS   -0.539375843736    0.469779155745    4.345213879660
