13

 N   -0.541129497004    0.468457841778   -5.317571937460
 C    0.632610086079    1.195830033288   -5.317884416630
 H    0.514893226016    2.281148492332   -5.318000264189
 C   -0.586905470084   -0.924753950089   -5.317956992029
 O   -1.638493638640   -1.558857263930   -5.317613624925
 N    0.673535071057   -1.508224006221   -5.317540088707
 H    0.683350868180   -2.526509118087   -5.317567392802
 C    1.934789360290   -0.872168519258   -5.317522993871
 O    2.968482288358   -1.541432353674   -5.318268659535
 C    1.853310568530    0.588378542132   -5.318022891318
 H    2.776710706832    1.165438800998   -5.318363568095
 H   -1.444866672952    0.928111963138   -5.317773589060
CS   -0.539350941429    0.469797918728    4.482427809526
