13

 N   -0.541139344762    0.468450421851   -5.371833958256
 C    0.632600238321    1.195822613361   -5.372146437426
 H    0.514883378258    2.281141072405   -5.372262284985
 C   -0.586915317842   -0.924761370016   -5.372219012825
 O   -1.638503486398   -1.558864683857   -5.371875645721
 N    0.673525223299   -1.508231426148   -5.371802109503
 H    0.683341020422   -2.526516538014   -5.371829413598
 C    1.934779512532   -0.872175939185   -5.371785014667
 O    2.968472440600   -1.541439773601   -5.372530680331
 C    1.853300720772    0.588371122205   -5.372284912114
 H    2.776700859074    1.165431381071   -5.372625588891
 H   -1.444876520710    0.928104543211   -5.372035609856
CS   -0.539342640660    0.469804173055    4.528165786148
