7

 H   -0.346015273977    2.339216139536    0.000000000000
 H    1.193543726023    2.430195139536    0.902247000000
 H    1.193543726023    2.430195139536   -0.902247000000
 C    0.709732726023    2.033675139536    0.000000000000
 S    0.709732726023    0.200949139536    0.000000000000
 H    2.050315726023    0.044558139536    0.000000000000
RB   -0.416100298897   -0.449050860464    0.000000000000
