7

 H   -0.290689932294    2.371158240449    0.000000000000
 H    1.248869067706    2.462137240449    0.902247000000
 H    1.248869067706    2.462137240449   -0.902247000000
 C    0.765058067706    2.065617240449    0.000000000000
 S    0.765058067706    0.232891240449    0.000000000000
 H    2.105641067706    0.076500240449    0.000000000000
RB   -0.447377497593   -0.467108759551    0.000000000000
