7

 H   -0.124713907247    2.466984543189    0.000000000000
 H    1.414845092753    2.557963543189    0.902247000000
 H    1.414845092753    2.557963543189   -0.902247000000
 C    0.931034092753    2.161443543189    0.000000000000
 S    0.931034092753    0.328717543189    0.000000000000
 H    2.271617092753    0.172326543189    0.000000000000
RB   -0.541209093681   -0.521282456811    0.000000000000
