7

 H    0.483864851260    2.818347653236    0.000000000000
 H    2.023423851260    2.909326653236    0.902247000000
 H    2.023423851260    2.909326653236   -0.902247000000
 C    1.539612851260    2.512806653236    0.000000000000
 S    1.539612851260    0.680080653236    0.000000000000
 H    2.880195851260    0.523689653236    0.000000000000
RB   -0.885258279337   -0.719919346764    0.000000000000
