7

 H    0.539190192942    2.850289754149    0.000000000000
 H    2.078749192942    2.941268754149    0.902247000000
 H    2.078749192942    2.941268754149   -0.902247000000
 C    1.594938192942    2.544748754149    0.000000000000
 S    1.594938192942    0.712022754149    0.000000000000
 H    2.935521192942    0.555631754149    0.000000000000
RB   -0.916535478033   -0.737977245851    0.000000000000
