7

 H    0.594515534625    2.882231855063    0.000000000000
 H    2.134074534625    2.973210855063    0.902247000000
 H    2.134074534625    2.973210855063   -0.902247000000
 C    1.650263534625    2.576690855063    0.000000000000
 S    1.650263534625    0.743964855063    0.000000000000
 H    2.990846534625    0.587573855063    0.000000000000
RB   -0.947812676729   -0.756035144937    0.000000000000
