7

 H    0.705166217989    2.946116056890    0.000000000000
 H    2.244725217989    3.037095056890    0.902247000000
 H    2.244725217989    3.037095056890   -0.902247000000
 C    1.760914217989    2.640575056890    0.000000000000
 S    1.760914217989    0.807849056890    0.000000000000
 H    3.101497217989    0.651458056890    0.000000000000
RB   -1.010367074121   -0.792150943110    0.000000000000
