7

 H    0.981792926402    3.105826561456    0.000000000000
 H    2.521351926402    3.196805561456    0.902247000000
 H    2.521351926402    3.196805561456   -0.902247000000
 C    2.037540926402    2.800285561456    0.000000000000
 S    2.037540926402    0.967559561456    0.000000000000
 H    3.378123926402    0.811168561456    0.000000000000
RB   -1.166753067601   -0.882440438544    0.000000000000
