7

 H    1.147768951449    3.201652864196    0.000000000000
 H    2.687327951449    3.292631864196    0.902247000000
 H    2.687327951449    3.292631864196   -0.902247000000
 C    2.203516951449    2.896111864196    0.000000000000
 S    2.203516951449    1.063385864196    0.000000000000
 H    3.544099951449    0.906994864196    0.000000000000
RB   -1.260584663689   -0.936614135804    0.000000000000
