7

 H    1.645697026591    3.489131772417    0.000000000000
 H    3.185256026591    3.580110772417    0.902247000000
 H    3.185256026591    3.580110772417   -0.902247000000
 C    2.701445026591    3.183590772417    0.000000000000
 S    2.701445026591    1.350864772417    0.000000000000
 H    4.042028026591    1.194473772417    0.000000000000
RB   -1.542079451953   -1.099135227583    0.000000000000
