7

 H    1.756347709956    3.553015974243    0.000000000000
 H    3.295906709956    3.643994974243    0.902247000000
 H    3.295906709956    3.643994974243   -0.902247000000
 C    2.812095709956    3.247474974243    0.000000000000
 S    2.812095709956    1.414748974243    0.000000000000
 H    4.152678709956    1.258357974243    0.000000000000
RB   -1.604633849345   -1.135251025757    0.000000000000
