7

 H    1.811673051638    3.584958075157    0.000000000000
 H    3.351232051638    3.675937075157    0.902247000000
 H    3.351232051638    3.675937075157   -0.902247000000
 C    2.867421051638    3.279417075157    0.000000000000
 S    2.867421051638    1.446691075157    0.000000000000
 H    4.208004051638    1.290300075157    0.000000000000
RB   -1.635911048041   -1.153308924843    0.000000000000
