7

 H    1.977649076686    3.680784377897    0.000000000000
 H    3.517208076686    3.771763377897    0.902247000000
 H    3.517208076686    3.771763377897   -0.902247000000
 C    3.033397076686    3.375243377897    0.000000000000
 S    3.033397076686    1.542517377897    0.000000000000
 H    4.373980076686    1.386126377897    0.000000000000
RB   -1.729742644129   -1.207482622103    0.000000000000
