7

 H    2.032974418368    3.712726478810    0.000000000000
 H    3.572533418368    3.803705478810    0.902247000000
 H    3.572533418368    3.803705478810   -0.902247000000
 C    3.088722418368    3.407185478810    0.000000000000
 S    3.088722418368    1.574459478810    0.000000000000
 H    4.429305418368    1.418068478810    0.000000000000
RB   -1.761019842825   -1.225540521190    0.000000000000
