7

 H    2.143625101733    3.776610680637    0.000000000000
 H    3.683184101733    3.867589680637    0.902247000000
 H    3.683184101733    3.867589680637   -0.902247000000
 C    3.199373101733    3.471069680637    0.000000000000
 S    3.199373101733    1.638343680637    0.000000000000
 H    4.539956101733    1.481952680637    0.000000000000
RB   -1.823574240217   -1.261656319363    0.000000000000
