7

 H    2.198950443415    3.808552781550    0.000000000000
 H    3.738509443415    3.899531781550    0.902247000000
 H    3.738509443415    3.899531781550   -0.902247000000
 C    3.254698443415    3.503011781550    0.000000000000
 S    3.254698443415    1.670285781550    0.000000000000
 H    4.595281443415    1.513894781550    0.000000000000
RB   -1.854851438913   -1.279714218450    0.000000000000
