7

 H    2.254275785098    3.840494882464    0.000000000000
 H    3.793834785098    3.931473882464    0.902247000000
 H    3.793834785098    3.931473882464   -0.902247000000
 C    3.310023785098    3.534953882464    0.000000000000
 S    3.310023785098    1.702227882464    0.000000000000
 H    4.650606785098    1.545836882464    0.000000000000
RB   -1.886128637609   -1.297772117536    0.000000000000
