7

 H    2.641553176875    4.064089588857    0.000000000000
 H    4.181112176875    4.155068588857    0.902247000000
 H    4.181112176875    4.155068588857   -0.902247000000
 C    3.697301176875    3.758548588857    0.000000000000
 S    3.697301176875    1.925822588857    0.000000000000
 H    5.037884176875    1.769431588857    0.000000000000
RB   -2.105069028481   -1.424177411143    0.000000000000
