7

 H    2.752203860240    4.127973790684    0.000000000000
 H    4.291762860240    4.218952790684    0.902247000000
 H    4.291762860240    4.218952790684   -0.902247000000
 C    3.807951860240    3.822432790684    0.000000000000
 S    3.807951860240    1.989706790684    0.000000000000
 H    5.148534860240    1.833315790684    0.000000000000
RB   -2.167623425873   -1.460293209316    0.000000000000
