7

 H    2.862854543605    4.191857992511    0.000000000000
 H    4.402413543605    4.282836992511    0.902247000000
 H    4.402413543605    4.282836992511   -0.902247000000
 C    3.918602543605    3.886316992511    0.000000000000
 S    3.918602543605    2.053590992511    0.000000000000
 H    5.259185543605    1.897199992511    0.000000000000
RB   -2.230177823265   -1.496409007489    0.000000000000
