7

 H    3.250131935382    4.415452698904    0.000000000000
 H    4.789690935382    4.506431698904    0.902247000000
 H    4.789690935382    4.506431698904   -0.902247000000
 C    4.305879935382    4.109911698904    0.000000000000
 S    4.305879935382    2.277185698904    0.000000000000
 H    5.646462935382    2.120794698904    0.000000000000
RB   -2.449118214137   -1.622814301096    0.000000000000
