7

 H    3.305457277064    4.447394799818    0.000000000000
 H    4.845016277064    4.538373799818    0.902247000000
 H    4.845016277064    4.538373799818   -0.902247000000
 C    4.361205277064    4.141853799818    0.000000000000
 S    4.361205277064    2.309127799818    0.000000000000
 H    5.701788277064    2.152736799818    0.000000000000
RB   -2.480395412833   -1.640872200182    0.000000000000
