7

 H    3.471433302112    4.543221102558    0.000000000000
 H    5.010992302112    4.634200102558    0.902247000000
 H    5.010992302112    4.634200102558   -0.902247000000
 C    4.527181302112    4.237680102558    0.000000000000
 S    4.527181302112    2.404954102558    0.000000000000
 H    5.867764302112    2.248563102558    0.000000000000
RB   -2.574227008921   -1.695045897442    0.000000000000
