7

 H    3.526758643794    4.575163203471    0.000000000000
 H    5.066317643794    4.666142203471    0.902247000000
 H    5.066317643794    4.666142203471   -0.902247000000
 C    4.582506643794    4.269622203471    0.000000000000
 S    4.582506643794    2.436896203471    0.000000000000
 H    5.923089643794    2.280505203471    0.000000000000
RB   -2.605504207617   -1.713103796529    0.000000000000
