7

 H    3.582083985477    4.607105304385    0.000000000000
 H    5.121642985477    4.698084304385    0.902247000000
 H    5.121642985477    4.698084304385   -0.902247000000
 C    4.637831985477    4.301564304385    0.000000000000
 S    4.637831985477    2.468838304385    0.000000000000
 H    5.978414985477    2.312447304385    0.000000000000
RB   -2.636781406313   -1.731161695615    0.000000000000
