7

 H    3.637409327159    4.639047405298    0.000000000000
 H    5.176968327159    4.730026405298    0.902247000000
 H    5.176968327159    4.730026405298   -0.902247000000
 C    4.693157327159    4.333506405298    0.000000000000
 S    4.693157327159    2.500780405298    0.000000000000
 H    6.033740327159    2.344389405298    0.000000000000
RB   -2.668058605009   -1.749219594702    0.000000000000
