7

 H    3.748060010524    4.702931607125    0.000000000000
 H    5.287619010524    4.793910607125    0.902247000000
 H    5.287619010524    4.793910607125   -0.902247000000
 C    4.803808010524    4.397390607125    0.000000000000
 S    4.803808010524    2.564664607125    0.000000000000
 H    6.144391010524    2.408273607125    0.000000000000
RB   -2.730613002401   -1.785335392875    0.000000000000
