7

 H    3.803385352206    4.734873708038    0.000000000000
 H    5.342944352206    4.825852708038    0.902247000000
 H    5.342944352206    4.825852708038   -0.902247000000
 C    4.859133352206    4.429332708038    0.000000000000
 S    4.859133352206    2.596606708038    0.000000000000
 H    6.199716352206    2.440215708038    0.000000000000
RB   -2.761890201097   -1.803393291962    0.000000000000
