7

 H    3.969361377254    4.830700010778    0.000000000000
 H    5.508920377254    4.921679010778    0.902247000000
 H    5.508920377254    4.921679010778   -0.902247000000
 C    5.025109377254    4.525159010778    0.000000000000
 S    5.025109377254    2.692433010778    0.000000000000
 H    6.365692377254    2.536042010778    0.000000000000
RB   -2.855721797185   -1.857566989222    0.000000000000
