7

 H    4.190662743983    4.958468414432    0.000000000000
 H    5.730221743983    5.049447414432    0.902247000000
 H    5.730221743983    5.049447414432   -0.902247000000
 C    5.246410743983    4.652927414432    0.000000000000
 S    5.246410743983    2.820201414432    0.000000000000
 H    6.586993743983    2.663810414432    0.000000000000
RB   -2.980830591969   -1.929798585568    0.000000000000
