7

 H    4.411964110713    5.086236818085    0.000000000000
 H    5.951523110713    5.177215818085    0.902247000000
 H    5.951523110713    5.177215818085   -0.902247000000
 C    5.467712110713    4.780695818085    0.000000000000
 S    5.467712110713    2.947969818085    0.000000000000
 H    6.808295110713    2.791578818085    0.000000000000
RB   -3.105939386753   -2.002030181915    0.000000000000
