21

 H    2.912112804015   -2.683524656729    0.179471219272
 H    1.726132804015   -3.285724656729   -1.031048780728
 H    1.209672804015   -3.046674656729    0.676321219272
 C    1.858792804015   -2.676434656729   -0.125158780728
 S    1.387552804015   -0.975754656729   -0.601308780728
 S    1.579972804015    0.045655343271    1.230831219272
 C    3.049842804015    1.088575343271    0.932801219272
 H    3.928172804015    0.441115343271    0.824871219272
 H    3.154742804015    1.719925343271    1.827311219272
 H    2.904172804015    1.712675343271    0.043901219272
LI   -0.575927195985    0.384555343271    0.215721219272
 S   -1.509241153743    1.031160508528    0.604085502538
 S   -1.371489139322   -0.099616402491   -1.167754023189
 C   -2.040453071966    2.657822883098   -0.038481345343
 H   -3.039909831151    2.559303736307   -0.478611262907
 H   -2.079506051834    3.323833516292    0.835805083030
 H   -1.318633455131    3.038232109406   -0.769962594174
 C   -2.783794388949   -1.245842737742   -0.998713694414
 H   -3.715730513979   -0.670277327753   -1.049030368471
 H   -2.717172033603   -1.930837666841   -1.856664405864
 H   -2.712996049072   -1.806810928491   -0.060008421372
