21

 H    3.222904791071   -2.889054139857    0.066357011332
 H    2.036924791071   -3.491254139857   -1.144162988668
 H    1.520464791071   -3.252204139857    0.563207011332
 C    2.169584791071   -2.881964139857   -0.238272988668
 S    1.698344791071   -1.181284139857   -0.714422988668
 S    1.890764791071   -0.159874139857    1.117717011332
 C    3.360634791071    0.883045860143    0.819687011332
 H    4.238964791071    0.235585860143    0.711757011332
 H    3.465534791071    1.514395860143    1.714197011332
 H    3.214964791071    1.507145860143   -0.069212988668
LI   -0.265135208929    0.179025860143    0.102607011332
 S   -1.742882308713    1.202817371799    0.717517126503
 S   -1.804169645745    0.134301441577   -1.096749919463
 C   -2.241361503428    2.875845617609    0.175665008246
 H   -3.276482146988    2.841399762912   -0.184436250388
 H   -2.176902857147    3.509567463038    1.072165852164
 H   -1.562119819515    3.248923436478   -0.599088650670
 C   -3.254239660462   -0.949321824243   -0.851651709161
 H   -4.157120747791   -0.328791542377   -0.806262707934
 H   -3.290900109079   -1.603913590558   -1.734772111699
 H   -3.136911210325   -1.547958356909    0.058696379290
