21

 H    6.405505356918   -5.085414178523   -1.243783990411
 H    5.219525356918   -5.687614178523   -2.454303990411
 H    4.703065356918   -5.448564178523   -0.746933990411
 C    5.352185356918   -5.078324178523   -1.548413990411
 S    4.880945356918   -3.377644178523   -2.024563990411
 S    5.073365356918   -2.356234178523   -0.192423990411
 C    6.543235356918   -1.313314178523   -0.490453990411
 H    7.421565356918   -1.960774178523   -0.598383990411
 H    6.648135356918   -0.681964178523    0.404056009589
 H    6.397565356918   -0.689214178523   -1.379353990411
LI    2.917465356918   -2.017334178523   -1.207533990411
 S   -4.860150957735    3.371042198616    2.028835036806
 S   -5.568246633136    2.584013004315    0.207782344901
 C   -5.178570336499    5.157091755138    1.805799573758
 H   -6.260696789537    5.322017030137    1.741486484870
 H   -4.777617373276    5.644679178457    2.706336793146
 H   -4.664574951002    5.532265339058    0.913693592545
 C   -7.074919087945    1.696744504580    0.736656891271
 H   -7.813013047811    2.428316321493    1.086417142169
 H   -7.449691840973    1.182857971791   -0.160673610498
 H   -6.836473703054    0.967251950256    1.518865122633
