21

 H    3.266000088862   -2.917970750551    0.049981211859
 H    2.080020088862   -3.520170750551   -1.160538788141
 H    1.563560088862   -3.281120750551    0.546831211859
 C    2.212680088862   -2.910880750551   -0.254648788141
 S    1.741440088862   -1.210200750551   -0.730798788141
 S    1.933860088862   -0.188790750551    1.101341211859
 C    3.403730088862    0.854129249449    0.803311211859
 H    4.282060088862    0.206669249449    0.695381211859
 H    3.508630088862    1.485479249449    1.697821211859
 H    3.258060088862    1.478229249449   -0.085588788141
LI   -0.222039911138    0.150109249449    0.086231211859
 S   -1.777563174068    1.227784524877    0.733505017303
 S   -1.862347349789    0.167352541920   -1.084555212164
 C   -2.271494989121    2.905937218797    0.203463853931
 H   -3.310187066151    2.878973288006   -0.146858705508
 H   -2.194815577538    3.535465266945    1.101955235099
 H   -1.597528936368    3.278389884953   -0.576182429527
 C   -3.316262487920   -0.908946030639   -0.830138789107
 H   -4.215061147289   -0.283432834043   -0.773513169444
 H   -3.365138585310   -1.559560124235   -1.715603888768
 H   -3.193720088218   -1.512107677094    0.076528015249
