21

 H    3.393751628624   -3.004130761283    0.000708682790
 H    2.207771628624   -3.606330761283   -1.209811317210
 H    1.691311628624   -3.367280761283    0.497558682790
 C    2.340431628624   -2.997040761283   -0.303921317210
 S    1.869191628624   -1.296360761283   -0.780071317210
 S    2.061611628624   -0.274950761283    1.052068682790
 C    3.531481628624    0.767969238717    0.754038682790
 H    4.409811628624    0.120509238717    0.646108682790
 H    3.636381628624    1.399319238717    1.648548682790
 H    3.385811628624    1.392069238717   -0.134861317210
LI   -0.094288371376    0.063949238717    0.036958682790
 S   -1.883140123746    1.303275805459    0.781323559050
 S   -2.032457802838    0.265845930444   -1.045830192016
 C   -2.363838195269    2.995122286771    0.283635318677
 H   -3.411643153139    2.988617924331   -0.039469375860
 H   -2.253593556026    3.612715863762    1.186905129298
 H   -1.704633129397    3.366119853426   -0.509213369765
 C   -3.496265484404   -0.790407109426   -0.765451609282
 H   -4.383140935331   -0.151562849135   -0.678031956825
 H   -3.578716615598   -1.429673256648   -1.656673589700
 H   -3.359707087292   -1.406082211373    0.130741047807
