21

 H    3.684668449774   -3.202185185142   -0.114558970122
 H    2.498688449774   -3.804385185142   -1.325078970122
 H    1.982228449774   -3.565335185142    0.382291029878
 C    2.631348449774   -3.195095185142   -0.419188970122
 S    2.160108449774   -1.494415185142   -0.895338970122
 S    2.352528449774   -0.473005185142    0.936801029878
 C    3.822398449774    0.569914814858    0.638771029878
 H    4.700728449774   -0.077545185142    0.530841029878
 H    3.927298449774    1.201264814858    1.533281029878
 H    3.676728449774    1.194014814858   -0.250128970122
LI    0.196628449774   -0.134105185142   -0.078308970122
 S   -2.136656444622    1.482407728000    0.892601738044
 S   -2.408211886333    0.491786849956   -0.946413015285
 C   -2.589272343453    3.198652066083    0.455848996754
 H   -3.651519973091    3.230539816304    0.185761372429
 H   -2.415444465846    3.791953605419    1.365381409584
 H   -1.959127130994    3.567953990144   -0.361055316002
 C   -3.888052375981   -0.526786264958   -0.615359398369
 H   -4.749463941727    0.135874067688   -0.469882087645
 H   -4.034201948013   -1.142842777672   -1.514720666235
 H   -3.726176392093   -1.166509670073    0.259520842801
