21

 H    3.766340138984   -3.258121513547   -0.147473408406
 H    2.580360138984   -3.860321513547   -1.357993408406
 H    2.063900138984   -3.621271513547    0.349376591594
 C    2.713020138984   -3.251031513547   -0.452103408406
 S    2.241780138984   -1.550351513547   -0.928253408406
 S    2.434200138984   -0.528941513547    0.903886591594
 C    3.904070138984    0.513978486453    0.605856591594
 H    4.782400138984   -0.133481513547    0.497926591594
 H    4.008970138984    1.145328486453    1.500366591594
 H    3.758400138984    1.138078486453   -0.283043408406
LI    0.278300138984   -0.190041513547   -0.111223408406
 S   -2.210537081705    1.534238927138    0.924414680303
 S   -2.511191437213    0.555392900519   -0.916377203530
 C   -2.655879749304    3.255990668714    0.502100122544
 H   -3.721015581342    3.296947127108    0.244918459267
 H   -2.466914830723    3.843180514811    1.412579338005
 H   -2.032866875391    3.625095847570   -0.320344940655
 C   -3.994320771218   -0.454266984021   -0.572968032621
 H   -4.849108907099    0.213782795842   -0.413722987542
 H   -4.155653659400   -1.064463896299   -1.473727402174
 H   -3.826658078504   -1.099782557631    0.296551473370
