21

 H    3.847493987651   -3.313810629293   -0.180357092797
 H    2.661513987651   -3.916010629293   -1.390877092797
 H    2.145053987651   -3.676960629293    0.316492907203
 C    2.794173987651   -3.306720629293   -0.484987092797
 S    2.322933987651   -1.606040629293   -0.961137092797
 S    2.515353987651   -0.584630629293    0.871002907203
 C    3.985223987651    0.458289370707    0.572972907203
 H    4.863553987651   -0.189170629293    0.465042907203
 H    4.090123987651    1.089639370707    1.467482907203
 H    3.839553987651    1.082389370707   -0.315927092797
LI    0.359453987651   -0.245730629293   -0.144107092797
 S   -2.284935559331    1.586317338935    0.956258376457
 S   -2.612572743662    0.618609703933   -0.885817396552
 C   -2.723329286042    3.313071432534    0.547308529264
 H   -3.790951997354    3.362412559021    0.302193495805
 H   -2.520327771489    3.894479606292    1.458476449121
 H   -2.107004732470    3.682066148968   -0.280209748485
 C   -4.098568154402   -0.382804792999   -0.530849500690
 H   -4.947019120061    0.290145105095   -0.358856351032
 H   -4.273987106214   -0.987451854041   -1.432717638124
 H   -3.925623117645   -1.033714782054    0.333599171013
