21

 H    3.968370584396   -3.396923833833   -0.229610872042
 H    2.782390584396   -3.999123833833   -1.440130872042
 H    2.265930584396   -3.760073833833    0.267239127958
 C    2.915050584396   -3.389833833833   -0.534240872042
 S    2.443810584396   -1.689153833833   -1.010390872042
 S    2.636230584396   -0.667743833833    0.821749127958
 C    4.106100584396    0.375176166167    0.523719127958
 H    4.984430584396   -0.272283833833    0.415789127958
 H    4.211000584396    1.006526166167    1.418229127958
 H    3.960430584396    0.999276166167   -0.365180872042
LI    0.480330584396   -0.328843833833   -0.193360872042
 S   -2.397387452026    1.664855425708    1.004095668028
 S   -2.761980565253    0.712748948815   -0.839165697960
 C   -2.825941835222    3.398296256295    0.613413233820
 H   -3.896669566006    3.459082451278    0.384980869366
 H   -2.603715156231    3.971605731559    1.525226595378
 H   -2.218895139338    3.767252948969   -0.220951688769
 C   -4.251612449961   -0.277403542703   -0.468206867222
 H   -5.091076473086    0.402104315476   -0.278782807108
 H   -4.446334637210   -0.874266357532   -1.371298260420
 H   -4.071564152530   -0.935738684512    0.389139478925
