21

 H    4.128178418880   -3.507047738276   -0.295128904196
 H    2.942198418880   -4.109247738276   -1.505648904196
 H    2.425738418880   -3.870197738276    0.201721095804
 C    3.074858418880   -3.499957738276   -0.599758904196
 S    2.603618418880   -1.799277738276   -1.075908904196
 S    2.796038418880   -0.777867738276    0.756231095804
 C    4.265908418880    0.265052261724    0.458201095804
 H    5.144238418880   -0.382407738276    0.350271095804
 H    4.370808418880    0.896402261724    1.352711095804
 H    4.120238418880    0.889152261724   -0.430698904196
LI    0.640138418880   -0.438967738276   -0.258878904196
 S   -2.548684270128    1.770266576351    1.068032396963
 S   -2.956894086693    0.837092799295   -0.775767698593
 C   -2.965142163379    3.511352163752    0.698854205036
 H   -4.039082316182    3.585588174176    0.490345828578
 H   -2.720224488001    4.074832757328    1.610981943102
 H   -2.369222001573    3.880434136246   -0.143438626723
 C   -4.450383815677   -0.139814371781   -0.385695434747
 H   -5.278779187208    0.547203146786   -0.175742374261
 H   -4.667904644364   -0.727214847748   -1.289786903748
 H   -4.262149524302   -0.806968395132    0.463032240233
