21

 H    4.167918796656   -3.534467707225   -0.311479286331
 H    2.981938796656   -4.136667707225   -1.521999286331
 H    2.465478796656   -3.897617707225    0.185370713669
 C    3.114598796656   -3.527377707225   -0.616109286331
 S    2.643358796656   -1.826697707225   -1.092259286331
 S    2.835778796656   -0.805287707225    0.739880713669
 C    4.305648796656    0.237632292775    0.441850713669
 H    5.183978796656   -0.409827707225    0.333920713669
 H    4.410548796656    0.868982292775    1.336360713669
 H    4.159978796656    0.861732292775   -0.447049286331
LI    0.679878796656   -0.466387707225   -0.275229286331
 S   -2.586720055498    1.796730371173    1.084045705101
 S   -3.004947517567    0.867985135469   -0.759745341094
 C   -3.000325051685    3.539533626652    0.719797909333
 H   -4.074933237009    3.616849758116    0.515901749610
 H   -2.750195713327    4.100715037239    1.631928818854
 H   -2.406987601332    3.908670627735   -0.124292192813
 C   -4.499256321387   -0.105887097766   -0.365246120996
 H   -5.325038228524    0.582819666881   -0.150584796638
 H   -4.722015928456   -0.691071868840   -1.269498826584
 H   -4.309172393998   -0.775075149680    0.481465611132
