21

 H    4.286695421111   -3.616488294933   -0.360459132650
 H    3.100715421111   -4.218688294933   -1.570979132650
 H    2.584255421111   -3.979638294933    0.136390867350
 C    3.233375421111   -3.609398294933   -0.665089132650
 S    2.762135421111   -1.908718294933   -1.141239132650
 S    2.954555421111   -0.887308294933    0.690900867350
 C    4.424425421111    0.155611705067    0.392870867350
 H    5.302755421111   -0.491848294933    0.284940867350
 H    4.529325421111    0.786961705067    1.287380867350
 H    4.278755421111    0.779711705067   -0.496029132650
LI    0.798655421111   -0.548408294933   -0.324209132650
 S   -2.701271920482    1.876361074779    1.132156929598
 S   -3.147676422953    0.960234241196   -0.711340287613
 C   -3.106701592978    3.623918602170    0.781759717822
 H   -4.183047745033    3.709880208292    0.590909663251
 H   -2.841912956459    4.178548644460    1.693760020322
 H   -2.520683677291    3.993263450404   -0.067338004278
 C   -4.644153706330   -0.005116000045   -0.304314226319
 H   -5.462440551840    0.688270360410   -0.076423367354
 H   -4.881653714967   -0.583982775181   -1.208882088307
 H   -4.448928834111   -0.680042540622    0.536653501772
