21

 H    4.326150908027   -3.643753786869   -0.376762005057
 H    3.140170908027   -4.245953786869   -1.587282005057
 H    2.623710908027   -4.006903786869    0.120087994943
 C    3.272830908027   -3.636663786869   -0.681392005057
 S    2.801590908027   -1.935983786869   -1.157542005057
 S    2.994010908027   -0.914573786869    0.674597994943
 C    4.463880908027    0.128346213131    0.376567994943
 H    5.342210908027   -0.519113786869    0.268637994943
 H    4.568780908027    0.759696213131    1.271077994943
 H    4.318210908027    0.752446213131   -0.512332005057
LI    0.838110908027   -0.575673786869   -0.340512005057
 S   -2.739592596714    1.902979346615    1.148217747463
 S   -3.194810060378    0.990848543717   -0.695105828060
 C   -3.142419315692    3.652000394773    0.802147314635
 H   -4.219266097402    3.740660539579    0.615399978525
 H   -2.873045602386    4.204555664321    1.714064270434
 H   -2.558707501030    4.021426414154   -0.048502137096
 C   -4.691924352262    0.028159317650   -0.284138902926
 H   -5.507823081620    0.722987446735   -0.052114368742
 H   -4.934036277042   -0.548705241343   -1.188763195579
 H   -4.495110303975   -0.648567322955    0.555009826378
