21

 H    4.444149846142   -3.725345529284   -0.425600306056
 H    3.258169846142   -4.327545529284   -1.636120306056
 H    2.741709846142   -4.088495529284    0.071249693944
 C    3.390829846142   -3.718255529284   -0.730230306056
 S    2.919589846142   -2.017575529284   -1.206380306056
 S    3.112009846142   -0.996165529284    0.625759693944
 C    4.581879846142    0.046754470716    0.327729693944
 H    5.460209846142   -0.600705529284    0.219799693944
 H    4.686779846142    0.678104470716    1.222239693944
 H    4.436209846142    0.670854470716   -0.561170306056
LI    0.956109846142   -0.657265529284   -0.389350306056
 S   -2.854922148038    1.983038895514    1.196470517280
 S   -3.335012440405    1.082313922891   -0.646151304953
 C   -3.250283553421    3.736129639467    0.862597877643
 H   -4.328432019248    3.832391590045    0.687487333684
 H   -2.967969183500    4.282762734105    1.774169550075
 H   -2.673123660712    4.105826604655    0.007606551207
 C   -4.833817790795    0.127123444205   -0.224002950024
 H   -5.642862905852    0.825964032894    0.019677339294
 H   -5.088949934442   -0.444022588595   -1.128677373723
 H   -4.632567198577   -0.554697260852    0.609953901909
