21

 H    4.600721041093   -3.833702268919   -0.490558453408
 H    3.414741041093   -4.435902268919   -1.701078453408
 H    2.898281041093   -4.196852268919    0.006291546592
 C    3.547401041093   -3.826612268919   -0.795188453408
 S    3.076161041093   -2.125932268919   -1.271338453408
 S    3.268581041093   -1.104522268919    0.560801546592
 C    4.738451041093   -0.061602268919    0.262771546592
 H    5.616781041093   -0.709062268919    0.154841546592
 H    4.843351041093    0.569747731081    1.157281546592
 H    4.592781041093    0.562497731081   -0.626128453408
LI    1.112681041093   -0.765622268919   -0.454308453408
 S   -3.009455605673    2.090217210965    1.260967131018
 S   -3.519449547519    1.203457001343   -0.580393739320
 C   -3.395607192847    3.848080948067    0.941732467478
 H   -4.475101346417    3.953454105700    0.780726100652
 H   -3.097734392365    4.387462874803    1.852672086466
 H   -2.826409994205    4.218186166175    0.081595133857
 C   -5.020077530994    0.257259432981   -0.144685833334
 H   -5.820658822913    0.960812391833    0.112986592664
 H   -5.290871276839   -0.306878047833   -1.049205409879
 H   -4.813588828353   -0.430712558030    0.682914469267
