21

 H    4.678721118063   -3.887714922808   -0.522971866161
 H    3.492741118063   -4.489914922808   -1.733491866161
 H    2.976281118063   -4.250864922808   -0.026121866161
 C    3.625401118063   -3.880624922808   -0.827601866161
 S    3.154161118063   -2.179944922808   -1.303751866161
 S    3.346581118063   -1.158534922808    0.528388133839
 C    4.816451118063   -0.115614922808    0.230358133839
 H    5.694781118063   -0.763074922808    0.122428133839
 H    4.921351118063    0.515735077192    1.124868133839
 H    4.670781118063    0.508485077192   -0.658541866161
LI    1.190681118063   -0.819634922808   -0.486721866161
 S   -3.087007854997    2.143972084619    1.293281098808
 S   -3.610722372864    1.263712202615   -0.547347323446
 C   -3.468847229426    3.903981595109    0.980752776860
 H   -4.548877947841    4.013524829582    0.826259711767
 H   -3.163835676150    4.439988121820    1.891322386110
 H   -2.903335081823    4.274304559141    0.118281635706
 C   -5.112109007398    0.321632501174   -0.105374957482
 H   -5.908724267842    1.027306438527    0.158709633074
 H   -5.390091616231   -0.239240078220   -1.009744148283
 H   -4.903252246195   -0.369171776963    0.719266545358
