21

 H    4.756551421761   -3.941627301714   -0.555343357048
 H    3.570571421761   -4.543827301714   -1.765863357048
 H    3.054111421761   -4.304777301714   -0.058493357048
 C    3.703231421761   -3.934537301714   -0.859973357048
 S    3.231991421761   -2.233857301714   -1.336123357048
 S    3.424411421761   -1.212447301714    0.496016642952
 C    4.894281421761   -0.169527301714    0.197986642952
 H    5.772611421761   -0.816987301714    0.090056642952
 H    4.999181421761    0.461822698286    1.092496642952
 H    4.748611421761    0.454572698286   -0.690913357048
LI    1.268511421761   -0.873547301714   -0.519093357048
 S   -3.164729877591    2.197827233255    1.325636988466
 S   -3.701429045499    1.323773292908   -0.514208401079
 C   -3.542437812393    3.959841612203    1.019449494810
 H   -4.622929087610    4.073325190841    0.871144870270
 H   -3.230670324542    4.492625533705    1.929622216939
 H   -2.980431492083    4.330388413164    0.154785675555
 C   -5.203488309774    0.385585733605   -0.066282477880
 H   -5.996302020967    1.093242838403    0.203865798763
 H   -5.488275894661   -0.172168333584   -0.970463016506
 H   -4.992411133358   -0.307904708277    0.755534252428
