21

 H    4.950469513221   -4.076012983590   -0.636098393262
 H    3.764489513221   -4.678212983590   -1.846618393262
 H    3.248029513221   -4.439162983590   -0.139248393262
 C    3.897149513221   -4.068922983590   -0.940728393262
 S    3.425909513221   -2.368242983590   -1.416878393262
 S    3.618329513221   -1.346832983590    0.415261606738
 C    5.088199513221   -0.303912983590    0.117231606738
 H    5.966529513221   -0.951372983590    0.009301606738
 H    5.193099513221    0.327437016410    1.011741606738
 H    4.942529513221    0.320187016410   -0.771668393262
LI    1.462429513221   -1.007932983590   -0.599848393262
 S   -3.359692601864    2.332860370237    1.406700403613
 S   -3.925987605622    1.473150483583   -0.431030867386
 C   -3.727798627352    4.099349835641    1.114944239128
 H   -4.809166564719    4.221792395404    0.980834643299
 H   -3.400632082154    4.624684960598    2.024041107338
 H   -3.173850660798    4.470471950636    0.245341121486
 C   -5.429413866924    0.543816464135    0.030556957004
 H   -6.213385931131    1.255905656938    0.314509477748
 H   -5.729718222500   -0.006724310281   -0.873023788766
 H   -5.213351310573   -0.155817757840    0.845844779055
