21

 H    4.989151771575   -4.102828291709   -0.652221124501
 H    3.803171771575   -4.705028291709   -1.862741124501
 H    3.286711771575   -4.465978291709   -0.155371124501
 C    3.935831771575   -4.095738291709   -0.956851124501
 S    3.464591771575   -2.395058291709   -1.433001124501
 S    3.657011771575   -1.373648291709    0.399138875499
 C    5.126881771575   -0.330728291709    0.101108875499
 H    6.005211771575   -0.978188291709   -0.006821124501
 H    5.231781771575    0.300621708291    0.995618875499
 H    4.981211771575    0.293371708291   -0.787791124501
LI    1.501111771575   -1.034748291709   -0.615971124501
 S   -3.398786506657    2.359928825888    1.422941362646
 S   -3.970557005765    1.502903249274   -0.414348217762
 C   -3.765087671270    4.127231700639    1.133851856438
 H   -4.846591229085    4.251328341044    1.002382246361
 H   -3.435072116809    4.651172838183    2.042723396208
 H   -3.212640940969    4.498470251083    0.263343898436
 C   -5.474210672038    0.575204482219    0.049781302962
 H   -6.256519811793    1.288100121643    0.336285172303
 H   -5.777386725740    0.026014394283   -0.853662409825
 H   -5.257237380916   -0.125569652183    0.863847337809
