21

 H    5.182122752419   -4.236631186062   -0.732703565727
 H    3.996142752419   -4.838831186062   -1.943223565727
 H    3.479682752419   -4.599781186062   -0.235853565727
 C    4.128802752419   -4.229541186062   -1.037333565727
 S    3.657562752419   -2.528861186062   -1.513483565727
 S    3.849982752419   -1.507451186062    0.318656434273
 C    5.319852752419   -0.464531186062    0.020626434273
 H    6.198182752419   -1.111991186062   -0.087303565727
 H    5.424752752419    0.166818813938    0.915136434273
 H    5.174182752419    0.159568813938   -0.868273565727
LI    1.694082752419   -1.168551186062   -0.696453565727
 S   -3.594696341545    2.495544750393    1.504277372781
 S   -4.191905889100    1.651116676375   -0.330751054525
 C   -3.952494632304    4.266566661163    1.227563600803
 H   -5.034518412154    4.398334023211    1.108416287624
 H   -3.609242446657    4.783965640277    2.135279575687
 H   -3.407065491529    4.638387507401    0.352888880237
 C   -5.696510623512    0.731003964356    0.145245534606
 H   -6.470981620643    1.447590394617    0.443592333765
 H   -6.013032486788    0.188155973420   -0.757453741569
 H   -5.475354064193    0.024920346452    0.953577772240
