21

 H    5.220636181624   -4.263341013928   -0.748775064892
 H    4.034656181624   -4.865541013928   -1.959295064892
 H    3.518196181624   -4.626491013928   -0.251925064892
 C    4.167316181624   -4.256251013928   -1.053405064892
 S    3.696076181624   -2.555571013928   -1.529555064892
 S    3.888496181624   -1.534161013928    0.302584935108
 C    5.358366181624   -0.491241013928    0.004554935108
 H    6.236696181624   -1.138701013928   -0.103375064892
 H    5.463266181624    0.140108986072    0.899064935108
 H    5.212696181624    0.132858986072   -0.884345064892
LI    1.732596181624   -1.195261013928   -0.712525064892
 S   -3.633959075487    2.522718686299    1.520569563888
 S   -4.235899644946    1.680656479111   -0.314000177213
 C   -3.990154589967    4.294421281168    1.246154900111
 H   -5.072255059736    4.427612628853    1.129309624950
 H   -3.644440690233    4.810591585549    2.153636125264
 H   -3.446038371386    4.666357966864    0.370712041547
 C   -5.740662002181    0.761952519718    0.164214048572
 H   -6.513654813398    1.479215130353    0.464761401235
 H   -6.059666571585    0.220296200493   -0.738327103366
 H   -5.518736221503    0.054879012187    0.971469465660
