21

 H    5.412849299008   -4.396664072159   -0.829017026441
 H    4.226869299008   -4.998864072159   -2.039537026441
 H    3.710409299008   -4.759814072159   -0.332167026441
 C    4.359529299008   -4.389574072159   -1.133647026441
 S    3.888289299008   -2.688894072159   -1.609797026441
 S    4.080709299008   -1.667484072159    0.222342973559
 C    5.550579299008   -0.624564072159   -0.075687026441
 H    6.428909299008   -1.272024072159   -0.183617026441
 H    5.655479299008    0.006785927841    0.818822973559
 H    5.404909299008   -0.000464072159   -0.964587026441
LI    1.924809299008   -1.328584072159   -0.792767026441
 S   -3.830626773835    2.658814446924    1.602146053700
 S   -4.454650587258    1.827891995014   -0.230122896016
 C   -4.179251118364    4.433648421651    1.338452736649
 H   -5.261625602770    4.573475804296    1.232396342840
 H   -3.822046400687    4.944033356393    2.244755150669
 H   -3.641296058933    4.806157406253    0.459452755691
 C   -5.960068109147    0.915755113185    0.258487333200
 H   -6.726075355403    1.636131217073    0.569298236535
 H   -6.290664360210    0.379712293783   -0.643233371315
 H   -5.734588462872    0.204050750505    1.060672557982
