21

 H    5.604541562924   -4.529649677751   -0.909081000212
 H    4.418561562924   -5.131849677751   -2.119601000212
 H    3.902101562924   -4.892799677751   -0.412231000212
 C    4.551221562924   -4.522559677751   -1.213711000212
 S    4.079981562924   -2.821879677751   -1.689861000212
 S    4.272401562924   -1.800469677751    0.142278999788
 C    5.742271562924   -0.757549677751   -0.155751000212
 H    6.620601562924   -1.405009677751   -0.263681000212
 H    5.847171562924   -0.126199677751    0.738758999788
 H    5.596601562924   -0.133449677751   -1.044651000212
LI    2.116501562924   -1.461569677751   -0.872831000212
 S   -4.027815325652    2.795247660189    1.683900531290
 S   -4.671599214146    1.974428872004   -0.146084760120
 C   -4.369538560378    4.572818992581    1.429786135782
 H   -5.452040038404    4.718569120860    1.333444917822
 H   -4.002051662910    5.077956481876    2.334916819550
 H   -3.837142626313    4.945884541767    0.547643164659
 C   -6.177489534167    1.068156054736    0.351890628074
 H   -6.937125368399    1.791257925872    0.671873960938
 H   -6.518462269621    0.537208090077   -0.548979987997
 H   -5.948881516130    0.352293512532    1.149477300705
