21

 H    5.795792329828   -4.662343900542   -0.988985254621
 H    4.609812329828   -5.264543900542   -2.199505254621
 H    4.093352329828   -5.025493900542   -0.492135254621
 C    4.742472329828   -4.655253900542   -1.293615254621
 S    4.271232329828   -2.954573900542   -1.769765254621
 S    4.463652329828   -1.933163900542    0.062374745379
 C    5.933522329828   -0.890243900542   -0.235655254621
 H    6.811852329828   -1.537703900542   -0.343585254621
 H    6.038422329828   -0.258893900542    0.658854745379
 H    5.787852329828   -0.266143900542   -1.124555254621
LI    2.307752329828   -1.594263900542   -0.952735254621
 S   -4.225445374481    2.931972256255    1.765814728242
 S   -4.887008402619    2.120355071241   -0.061932313799
 C   -4.560856164532    4.711953815155    1.520307113707
 H   -5.643375459077    4.863020554769    1.432757143863
 H   -4.184117704713    5.212312221609    2.424288117702
 H   -4.033499693351    5.085556422420    0.635368810632
 C   -6.393231554324    1.219348532886    0.444520643157
 H   -7.147036189919    1.944853804257    0.772747580760
 H   -6.743544008993    0.693043335303   -0.455490488719
 H   -6.161850907834    0.499732840087    1.237919380682
