21

 H    5.910358128616   -4.741836748913   -1.036858003755
 H    4.724378128616   -5.344036748913   -2.247378003755
 H    4.207918128616   -5.104986748913   -0.540008003755
 C    4.857038128616   -4.734746748913   -1.341488003755
 S    4.385798128616   -3.034066748913   -1.817638003755
 S    4.578218128616   -2.012656748913    0.014501996245
 C    6.048088128616   -0.969736748913   -0.283528003755
 H    6.926418128616   -1.617196748913   -0.391458003755
 H    6.152988128616   -0.338386748913    0.610981996245
 H    5.902418128616   -0.345636748913   -1.172428003755
LI    2.422318128616   -1.673756748913   -1.000608003755
 S   -4.344208065132    3.014130699198    1.815033049924
 S   -5.015606055230    2.207649104122   -0.011400502275
 C   -4.676084617588    4.795423891747    1.574281615848
 H   -5.758574171212    4.949426559976    1.491615270987
 H   -4.294228364196    5.293114947465    2.477587473464
 H   -4.151531299313    5.169338484288    0.687810381192
 C   -6.521975316154    1.309551664179    0.499763072924
 H   -7.272513836210    2.036366271992    0.832546344413
 H   -6.877455687904    0.785838812413   -0.399733768980
 H   -6.289078218128    0.587854969923    1.290824466768
