21

 H    5.948518672441   -4.768315392088   -1.052804681213
 H    4.762538672441   -5.370515392088   -2.263324681213
 H    4.246078672441   -5.131465392088   -0.555954681213
 C    4.895198672441   -4.761225392088   -1.357434681213
 S    4.423958672441   -3.060545392088   -1.833584681213
 S    4.616378672441   -2.039135392088   -0.001444681213
 C    6.086248672441   -0.996215392088   -0.299474681213
 H    6.964578672441   -1.643675392088   -0.407404681213
 H    6.191148672441   -0.364865392088    0.595035318787
 H    5.940578672441   -0.372115392088   -1.188374681213
LI    2.460478672441   -1.700235392088   -1.016554681213
 S   -4.383823684453    3.041535819795    1.831450062738
 S   -5.058373111682    2.236706729655    0.005448816629
 C   -4.714561333243    4.823246021221    1.592221923286
 H   -5.797035354567    4.978188684468    1.511123561003
 H   -4.331065164453    5.320078781851    2.495305504184
 H   -4.190908577348    5.197262842291    0.705261515545
 C   -6.564783429637    1.339540840939    0.518125015202
 H   -7.314269250332    2.066771945715    0.852367703712
 H   -6.921919983728    0.816662311135   -0.381201143208
 H   -6.331403033643    0.617176591099    1.308434313465
