21

 H    5.986665871966   -4.794784965556   -1.068746096225
 H    4.800685871966   -5.396984965556   -2.279266096225
 H    4.284225871966   -5.157934965556   -0.571896096225
 C    4.933345871966   -4.787694965556   -1.373376096225
 S    4.462105871966   -3.087014965556   -1.849526096225
 S    4.654525871966   -2.065604965556   -0.017386096225
 C    6.124395871966   -1.022684965556   -0.315416096225
 H    7.002725871966   -1.670144965556   -0.423346096225
 H    6.229295871966   -0.391334965556    0.579093903775
 H    5.978725871966   -0.398584965556   -1.204316096225
LI    2.498625871966   -1.726704965556   -1.032496096225
 S   -4.423452648075    3.068950010098    1.847872337998
 S   -5.101093062391    2.265744989064    0.022300507592
 C   -4.753070202692    4.851067669878    1.610137924651
 H   -5.835526150817    5.006931932926    1.530578940408
 H   -4.367965570081    5.347056900922    2.513000684006
 H   -4.230301842631    5.225185826695    0.722698685853
 C   -6.607540925124    1.369492490908    0.536461823638
 H   -7.355991339277    2.097130657973    0.872135661440
 H   -6.966301995269    0.847434006192   -0.362694140299
 H   -6.373687741612    0.646473142270    1.326031969766
