21

 H    6.062921770735   -4.847697844357   -1.100613576580
 H    4.876941770735   -5.449897844357   -2.311133576580
 H    4.360481770735   -5.210847844357   -0.603763576580
 C    5.009601770735   -4.840607844357   -1.405243576580
 S    4.538361770735   -3.139927844357   -1.881393576580
 S    4.730781770735   -2.118517844357   -0.049253576580
 C    6.200651770735   -1.075597844357   -0.347283576580
 H    7.078981770735   -1.723057844357   -0.455213576580
 H    6.305551770735   -0.444247844357    0.547226423420
 H    6.054981770735   -0.451497844357   -1.236183576580
LI    2.574881770735   -1.779617844357   -1.064363576580
 S   -4.502749075599    3.123804658840    1.880732238188
 S   -5.186396835941    2.323765285520    0.056010318054
 C   -4.830181099947    4.906709809874    1.645899896408
 H   -5.912593861793    5.064364170958    1.569336879723
 H   -4.441950397561    5.401054815955    2.548325513446
 H   -4.309134712448    5.281027946135    0.757532770136
 C   -6.692909930227    1.429287136806    0.573062250377
 H   -7.439339793527    2.157712326443    0.911516755851
 H   -7.054828544063    0.908827316559   -0.325755031871
 H   -6.458141403121    0.704993612562    1.361191640147
