21

 H    6.139128748527   -4.900577188847   -1.132461293805
 H    4.953148748527   -5.502777188847   -2.342981293805
 H    4.436688748527   -5.263727188847   -0.635611293805
 C    5.085808748527   -4.893487188847   -1.437091293805
 S    4.614568748527   -3.192807188847   -1.913241293805
 S    4.806988748527   -2.171397188847   -0.081101293805
 C    6.276858748527   -1.128477188847   -0.379131293805
 H    7.155188748527   -1.775937188847   -0.487061293805
 H    6.381758748527   -0.497127188847    0.515378706195
 H    6.131188748527   -0.504377188847   -1.268031293805
LI    2.651088748527   -1.832497188847   -1.096211293805
 S   -4.582094424100    3.178692841892    1.913611901507
 S   -5.271527293682    2.381713601583    0.089727652506
 C   -4.907410975585    4.962350836199    1.681573030683
 H   -5.989772057527    5.121727776512    1.607900381108
 H   -4.516169832542    5.455106407824    2.583567693762
 H   -4.388026795645    5.336865350767    0.792315751766
 C   -6.778093520758    1.488943124120    0.609568628676
 H   -7.522567273883    2.218121082590    0.950699960848
 H   -7.143053230753    0.970028965621   -0.288912601283
 H   -6.542447920124    0.763421323970    1.396305289833
