21

 H    6.253353365574   -4.979836984761   -1.180197570891
 H    5.067373365574   -5.582036984761   -2.390717570891
 H    4.550913365574   -5.342986984761   -0.683347570891
 C    5.200033365574   -4.972746984761   -1.484827570891
 S    4.728793365574   -3.272066984761   -1.960977570891
 S    4.921213365574   -2.250656984761   -0.128837570891
 C    6.391083365574   -1.207736984761   -0.426867570891
 H    7.269413365574   -1.855196984761   -0.534797570891
 H    6.495983365574   -0.576386984761    0.467642429109
 H    6.245413365574   -0.583636984761   -1.315767570891
LI    2.765313365574   -1.911756984761   -1.143947570891
 S   -4.701198296492    3.261084337292    1.962966695237
 S   -5.398918017288    2.468508470965    0.140315320940
 C   -5.023466023069    5.045811272328    1.734927188431
 H   -6.105735757049    5.207653489142    1.665403812022
 H   -4.627912559554    5.536279706592    2.636287399496
 H   -4.506469622728    5.420613604598    0.844400664480
 C   -6.905543731106    1.578182357963    0.664160654477
 H   -7.647197772670    2.308429797399    1.009124724822
 H   -7.274860267613    1.061492810413   -0.233822208230
 H   -6.668649335603    0.850898996383    1.448893260495
