21

 H    6.367482315490   -5.059030330178   -1.227893755168
 H    5.181502315490   -5.661230330178   -2.438413755168
 H    4.665042315490   -5.422180330178   -0.731043755168
 C    5.314162315490   -5.051940330178   -1.532523755168
 S    4.842922315490   -3.351260330178   -2.008673755168
 S    5.035342315490   -2.329850330178   -0.176533755168
 C    6.505212315490   -1.286930330178   -0.474563755168
 H    7.383542315490   -1.934390330178   -0.582493755168
 H    6.610112315490   -0.655580330178    0.419946244832
 H    6.359542315490   -0.662830330178   -1.363463755168
LI    2.879442315490   -1.990950330178   -1.191643755168
 S   -4.820397836016    3.343542283190    2.012361581777
 S   -5.525967900117    2.555159561313    0.190914104250
 C   -5.139757117438    5.129271523282    1.788108449472
 H   -6.221921415822    5.293446732264    1.722525584639
 H   -4.740118451611    5.617561989675    2.688848930857
 H   -4.625030096133    5.504353623593    0.896385921067
 C   -7.032631827656    1.667147113189    0.718562911629
 H   -7.771595380154    2.398398075343    1.067156010281
 H   -7.406076376056    1.152576492274   -0.178929294332
 H   -6.794562672169    0.938192662604    1.501387152298
