13

 C    1.525048692583    1.011639776953    0.000000000000
 H    1.058428692583    2.003806776953    0.000000000000
 H    2.162197692583    0.907222776953    0.892506000000
 H    2.162197692583    0.907222776953   -0.892506000000
 C    0.426873692583   -0.039445223047    0.000000000000
 O   -0.779289307417    0.238608776953    0.000000000000
 N    0.857802692583   -1.339594223047    0.000000000000
 H    1.849979692583   -1.533495223047    0.000000000000
 C   -0.100532307417   -2.438122223047    0.000000000000
 H   -0.744597307417   -2.389643223047    0.890708000000
 H   -0.744597307417   -2.389643223047   -0.890708000000
 H    0.452693692583   -3.386547223047    0.000000000000
NA   -1.218310560509    1.672924062842    0.000000000000
