13

 C    1.546066458336    0.942973163475    0.000000000000
 H    1.079446458336    1.935140163475    0.000000000000
 H    2.183215458336    0.838556163475    0.892506000000
 H    2.183215458336    0.838556163475   -0.892506000000
 C    0.447891458336   -0.108111836525    0.000000000000
 O   -0.758271541664    0.169942163475    0.000000000000
 N    0.878820458336   -1.408260836525    0.000000000000
 H    1.870997458336   -1.602161836525    0.000000000000
 C   -0.079514541664   -2.506788836525    0.000000000000
 H   -0.723579541664   -2.458309836525    0.890708000000
 H   -0.723579541664   -2.458309836525   -0.890708000000
 H    0.473711458336   -3.455213836525    0.000000000000
NA   -1.285097045374    1.891120506541    0.000000000000
