13

 C    1.553072380254    0.920084292315    0.000000000000
 H    1.086452380254    1.912251292315    0.000000000000
 H    2.190221380254    0.815667292315    0.892506000000
 H    2.190221380254    0.815667292315   -0.892506000000
 C    0.454897380254   -0.131000707685    0.000000000000
 O   -0.751265619746    0.147053292315    0.000000000000
 N    0.885826380254   -1.431149707685    0.000000000000
 H    1.878003380254   -1.625050707685    0.000000000000
 C   -0.072508619746   -2.529677707685    0.000000000000
 H   -0.716573619746   -2.481198707685    0.890708000000
 H   -0.716573619746   -2.481198707685   -0.890708000000
 H    0.480717380254   -3.478102707685    0.000000000000
NA   -1.307359206996    1.963852654441    0.000000000000
