13

 C    1.574090146007    0.851417678837    0.000000000000
 H    1.107470146007    1.843584678837    0.000000000000
 H    2.211239146007    0.747000678837    0.892506000000
 H    2.211239146007    0.747000678837   -0.892506000000
 C    0.475915146007   -0.199667321163    0.000000000000
 O   -0.730247853993    0.078386678837    0.000000000000
 N    0.906844146007   -1.499816321163    0.000000000000
 H    1.899021146007   -1.693717321163    0.000000000000
 C   -0.051490853993   -2.598344321163    0.000000000000
 H   -0.695555853993   -2.549865321163    0.890708000000
 H   -0.695555853993   -2.549865321163   -0.890708000000
 H    0.501735146007   -3.546769321163    0.000000000000
NA   -1.374145691861    2.182049098140    0.000000000000
