13

 C    1.616125677513    0.714084451880    0.000000000000
 H    1.149505677513    1.706251451880    0.000000000000
 H    2.253274677513    0.609667451880    0.892506000000
 H    2.253274677513    0.609667451880   -0.892506000000
 C    0.517950677513   -0.337000548120    0.000000000000
 O   -0.688212322487   -0.058946548120    0.000000000000
 N    0.948879677513   -1.637149548120    0.000000000000
 H    1.941056677513   -1.831050548120    0.000000000000
 C   -0.009455322487   -2.735677548120    0.000000000000
 H   -0.653520322487   -2.687198548120    0.890708000000
 H   -0.653520322487   -2.687198548120   -0.890708000000
 H    0.543770677513   -3.684102548120    0.000000000000
NA   -1.507718661591    2.618441985538    0.000000000000
