13

 C    1.658161209019    0.576751224923    0.000000000000
 H    1.191541209019    1.568918224923    0.000000000000
 H    2.295310209019    0.472334224923    0.892506000000
 H    2.295310209019    0.472334224923   -0.892506000000
 C    0.559986209019   -0.474333775077    0.000000000000
 O   -0.646176790981   -0.196279775077    0.000000000000
 N    0.990915209019   -1.774482775077    0.000000000000
 H    1.983092209019   -1.968383775077    0.000000000000
 C    0.032580209019   -2.873010775077    0.000000000000
 H   -0.611484790981   -2.824531775077    0.890708000000
 H   -0.611484790981   -2.824531775077   -0.890708000000
 H    0.585806209019   -3.821435775077    0.000000000000
NA   -1.641291631322    3.054834872937    0.000000000000
