13

 C    1.672173052855    0.530973482604    0.000000000000
 H    1.205553052855    1.523140482604    0.000000000000
 H    2.309322052855    0.426556482604    0.892506000000
 H    2.309322052855    0.426556482604   -0.892506000000
 C    0.573998052855   -0.520111517396    0.000000000000
 O   -0.632164947145   -0.242057517396    0.000000000000
 N    1.004927052855   -1.820260517396    0.000000000000
 H    1.997104052855   -2.014161517396    0.000000000000
 C    0.046592052855   -2.918788517396    0.000000000000
 H   -0.597472947145   -2.870309517396    0.890708000000
 H   -0.597472947145   -2.870309517396   -0.890708000000
 H    0.599818052855   -3.867213517396    0.000000000000
NA   -1.685815954565    3.200299168736    0.000000000000
