13

 C    1.686184896690    0.485195740285    0.000000000000
 H    1.219564896690    1.477362740285    0.000000000000
 H    2.323333896690    0.380778740285    0.892506000000
 H    2.323333896690    0.380778740285   -0.892506000000
 C    0.588009896690   -0.565889259715    0.000000000000
 O   -0.618153103310   -0.287835259715    0.000000000000
 N    1.018938896690   -1.866038259715    0.000000000000
 H    2.011115896690   -2.059939259715    0.000000000000
 C    0.060603896690   -2.964566259715    0.000000000000
 H   -0.583461103310   -2.916087259715    0.890708000000
 H   -0.583461103310   -2.916087259715   -0.890708000000
 H    0.613829896690   -3.912991259715    0.000000000000
NA   -1.730340277809    3.345763464536    0.000000000000
