13

 C    1.833309256962    0.004529445935    0.000000000000
 H    1.366689256962    0.996696445935    0.000000000000
 H    2.470458256962   -0.099887554065    0.892506000000
 H    2.470458256962   -0.099887554065   -0.892506000000
 C    0.735134256962   -1.046555554065    0.000000000000
 O   -0.471028743038   -0.768501554065    0.000000000000
 N    1.166063256962   -2.346704554065    0.000000000000
 H    2.158240256962   -2.540605554065    0.000000000000
 C    0.207728256962   -3.445232554065    0.000000000000
 H   -0.436336743038   -3.396753554065    0.890708000000
 H   -0.436336743038   -3.396753554065   -0.890708000000
 H    0.760954256962   -4.393657554065    0.000000000000
NA   -2.197845671866    4.873138570430    0.000000000000
