13

 C    1.840315178879   -0.018359425224    0.000000000000
 H    1.373695178879    0.973807574776    0.000000000000
 H    2.477464178879   -0.122776425224    0.892506000000
 H    2.477464178879   -0.122776425224   -0.892506000000
 C    0.742140178879   -1.069444425224    0.000000000000
 O   -0.464022821121   -0.791390425224    0.000000000000
 N    1.173069178879   -2.369593425224    0.000000000000
 H    2.165246178879   -2.563494425224    0.000000000000
 C    0.214734178879   -3.468121425224    0.000000000000
 H   -0.429330821121   -3.419642425224    0.890708000000
 H   -0.429330821121   -3.419642425224   -0.890708000000
 H    0.767960178879   -4.416546425224    0.000000000000
NA   -2.220107833487    4.945870718330    0.000000000000
