13

 C    1.854327022715   -0.064137167543    0.000000000000
 H    1.387707022715    0.928029832457    0.000000000000
 H    2.491476022715   -0.168554167543    0.892506000000
 H    2.491476022715   -0.168554167543   -0.892506000000
 C    0.756152022715   -1.115222167543    0.000000000000
 O   -0.450010977285   -0.837168167543    0.000000000000
 N    1.187081022715   -2.415371167543    0.000000000000
 H    2.179258022715   -2.609272167543    0.000000000000
 C    0.228746022715   -3.513899167543    0.000000000000
 H   -0.415318977285   -3.465420167543    0.890708000000
 H   -0.415318977285   -3.465420167543   -0.890708000000
 H    0.781972022715   -4.462324167543    0.000000000000
NA   -2.264632156731    5.091335014130    0.000000000000
