13

 C    1.910374398056   -0.247248136819    0.000000000000
 H    1.443754398056    0.744918863181    0.000000000000
 H    2.547523398056   -0.351665136819    0.892506000000
 H    2.547523398056   -0.351665136819   -0.892506000000
 C    0.812199398056   -1.298333136819    0.000000000000
 O   -0.393963601944   -1.020279136819    0.000000000000
 N    1.243128398056   -2.598482136819    0.000000000000
 H    2.235305398056   -2.792383136819    0.000000000000
 C    0.284793398056   -3.697010136819    0.000000000000
 H   -0.359271601944   -3.648531136819    0.890708000000
 H   -0.359271601944   -3.648531136819   -0.890708000000
 H    0.838019398056   -4.645435136819    0.000000000000
NA   -2.442729449705    5.673192197327    0.000000000000
