13

 C    1.917380319974   -0.270137007979    0.000000000000
 H    1.450760319974    0.722029992021    0.000000000000
 H    2.554529319974   -0.374554007979    0.892506000000
 H    2.554529319974   -0.374554007979   -0.892506000000
 C    0.819205319974   -1.321222007979    0.000000000000
 O   -0.386957680026   -1.043168007979    0.000000000000
 N    1.250134319974   -2.621371007979    0.000000000000
 H    2.242311319974   -2.815272007979    0.000000000000
 C    0.291799319974   -3.719899007979    0.000000000000
 H   -0.352265680026   -3.671420007979    0.890708000000
 H   -0.352265680026   -3.671420007979   -0.890708000000
 H    0.845025319974   -4.668324007979    0.000000000000
NA   -2.464991611326    5.745924345227    0.000000000000
