13

 C    1.924386241892   -0.293025879139    0.000000000000
 H    1.457766241892    0.699141120861    0.000000000000
 H    2.561535241892   -0.397442879139    0.892506000000
 H    2.561535241892   -0.397442879139   -0.892506000000
 C    0.826211241892   -1.344110879139    0.000000000000
 O   -0.379951758108   -1.066056879139    0.000000000000
 N    1.257140241892   -2.644259879139    0.000000000000
 H    2.249317241892   -2.838160879139    0.000000000000
 C    0.298805241892   -3.742787879139    0.000000000000
 H   -0.345259758108   -3.694308879139    0.890708000000
 H   -0.345259758108   -3.694308879139   -0.890708000000
 H    0.852031241892   -4.691212879139    0.000000000000
NA   -2.487253772948    5.818656493127    0.000000000000
