13

 C    1.938398085727   -0.338803621458    0.000000000000
 H    1.471778085727    0.653363378542    0.000000000000
 H    2.575547085727   -0.443220621458    0.892506000000
 H    2.575547085727   -0.443220621458   -0.892506000000
 C    0.840223085727   -1.389888621458    0.000000000000
 O   -0.365939914273   -1.111834621458    0.000000000000
 N    1.271152085727   -2.690037621458    0.000000000000
 H    2.263329085727   -2.883938621458    0.000000000000
 C    0.312817085727   -3.788565621458    0.000000000000
 H   -0.331247914273   -3.740086621458    0.890708000000
 H   -0.331247914273   -3.740086621458   -0.890708000000
 H    0.866043085727   -4.736990621458    0.000000000000
NA   -2.531778096192    5.964120788926    0.000000000000
