13

 C    1.952409929563   -0.384581363777    0.000000000000
 H    1.485789929563    0.607585636223    0.000000000000
 H    2.589558929563   -0.488998363777    0.892506000000
 H    2.589558929563   -0.488998363777   -0.892506000000
 C    0.854234929563   -1.435666363777    0.000000000000
 O   -0.351928070437   -1.157612363777    0.000000000000
 N    1.285163929563   -2.735815363777    0.000000000000
 H    2.277340929563   -2.929716363777    0.000000000000
 C    0.326828929563   -3.834343363777    0.000000000000
 H   -0.317236070437   -3.785864363777    0.890708000000
 H   -0.317236070437   -3.785864363777   -0.890708000000
 H    0.880054929563   -4.782768363777    0.000000000000
NA   -2.576302419435    6.109585084726    0.000000000000
