13

 C    2.015463226822   -0.590581204212    0.000000000000
 H    1.548843226822    0.401585795788    0.000000000000
 H    2.652612226822   -0.694998204212    0.892506000000
 H    2.652612226822   -0.694998204212   -0.892506000000
 C    0.917288226822   -1.641666204212    0.000000000000
 O   -0.288874773178   -1.363612204212    0.000000000000
 N    1.348217226822   -2.941815204212    0.000000000000
 H    2.340394226822   -3.135716204212    0.000000000000
 C    0.389882226822   -4.040343204212    0.000000000000
 H   -0.254182773178   -3.991864204212    0.890708000000
 H   -0.254182773178   -3.991864204212   -0.890708000000
 H    0.943108226822   -4.988768204212    0.000000000000
NA   -2.776661874031    6.764174415824    0.000000000000
