13

 C    2.071510602164   -0.773692173488    0.000000000000
 H    1.604890602164    0.218474826512    0.000000000000
 H    2.708659602164   -0.878109173488    0.892506000000
 H    2.708659602164   -0.878109173488   -0.892506000000
 C    0.973335602164   -1.824777173488    0.000000000000
 O   -0.232827397836   -1.546723173488    0.000000000000
 N    1.404264602164   -3.124926173488    0.000000000000
 H    2.396441602164   -3.318827173488    0.000000000000
 C    0.445929602164   -4.223454173488    0.000000000000
 H   -0.198135397836   -4.174975173488    0.890708000000
 H   -0.198135397836   -4.174975173488   -0.890708000000
 H    0.999155602164   -5.171879173488    0.000000000000
NA   -2.954759167005    7.346031599022    0.000000000000
