13

 C    2.078516524081   -0.796581044648    0.000000000000
 H    1.611896524081    0.195585955352    0.000000000000
 H    2.715665524081   -0.900998044648    0.892506000000
 H    2.715665524081   -0.900998044648   -0.892506000000
 C    0.980341524081   -1.847666044648    0.000000000000
 O   -0.225821475919   -1.569612044648    0.000000000000
 N    1.411270524081   -3.147815044648    0.000000000000
 H    2.403447524081   -3.341716044648    0.000000000000
 C    0.452935524081   -4.246343044648    0.000000000000
 H   -0.191129475919   -4.197864044648    0.890708000000
 H   -0.191129475919   -4.197864044648   -0.890708000000
 H    1.006161524081   -5.194768044648    0.000000000000
NA   -2.977021328627    7.418763746921    0.000000000000
