26

 C    3.346755987950    1.564335395681    0.000000000000
 H    2.831335987950    2.530505395681    0.000000000000
 H    3.987845987950    1.490715395681    0.890700000000
 H    3.987845987950    1.490715395681   -0.890700000000
 C    2.317265987950    0.472645395681    0.000000000000
 O    1.074315987950    0.718375395681    0.000000000000
 N    2.725715987950   -0.807684604319    0.000000000000
 H    3.720285987950   -1.012344604319    0.000000000000
 C    1.764585987950   -1.907844604319    0.000000000000
 H    1.126845987950   -1.868214604319    0.896360000000
 H    1.126845987950   -1.868214604319   -0.896360000000
 H    2.307575987950   -2.858274604319    0.000000000000
 K   -0.534484012050    0.068885395681    1.804140000000
 K   -0.534484012050    0.068885395681   -1.804140000000
 O   -0.316610390891    0.156838390093    0.000000000000
 C   -1.559562870389    0.402568880288    0.000000000000
 C   -2.096188804726    1.803872879495    0.000000000000
 H   -1.251893597204    2.501225089684    0.000000000000
 H   -2.717062357386    1.979740559237    0.890698940681
 H   -2.717062357386    1.979740559237   -0.890698940681
 N   -2.424480751752   -0.626015136631    0.000000000000
 H   -3.422108833848   -0.436817679163    0.000000000000
 C   -1.954292811300   -2.009150870229    0.000000000000
 H   -1.349457609882   -2.215178473133    0.896362443471
 H   -1.349457609882   -2.215178473133   -0.896362443471
 H   -2.818102091591   -2.681463728490    0.000000000000
