26

 C    3.376992915306    1.576542478603    0.000000000000
 H    2.861572915306    2.542712478603    0.000000000000
 H    4.018082915306    1.502922478603    0.890700000000
 H    4.018082915306    1.502922478603   -0.890700000000
 C    2.347502915306    0.484852478603    0.000000000000
 O    1.104552915306    0.730582478603    0.000000000000
 N    2.755952915306   -0.795477521397    0.000000000000
 H    3.750522915306   -1.000137521397    0.000000000000
 C    1.794822915306   -1.895637521397    0.000000000000
 H    1.157082915306   -1.856007521397    0.896360000000
 H    1.157082915306   -1.856007521397   -0.896360000000
 H    2.337812915306   -2.846067521397    0.000000000000
 K   -0.504247084694    0.081092478603    1.804140000000
 K   -0.504247084694    0.081092478603   -1.804140000000
 O   -0.379101888791    0.131609672643    0.000000000000
 C   -1.622054368289    0.377340162837    0.000000000000
 C   -2.158680302627    1.778644162045    0.000000000000
 H   -1.314385095105    2.475996372234    0.000000000000
 H   -2.779553855286    1.954511841787    0.890698940681
 H   -2.779553855286    1.954511841787   -0.890698940681
 N   -2.486972249652   -0.651243854081    0.000000000000
 H   -3.484600331749   -0.462046396613    0.000000000000
 C   -2.016784309201   -2.034379587679    0.000000000000
 H   -1.411949107782   -2.240407190583    0.896362443471
 H   -1.411949107782   -2.240407190583   -0.896362443471
 H   -2.880593589491   -2.706692445940    0.000000000000
