26

 C    3.407229842661    1.588749561526    0.000000000000
 H    2.891809842661    2.554919561526    0.000000000000
 H    4.048319842661    1.515129561526    0.890700000000
 H    4.048319842661    1.515129561526   -0.890700000000
 C    2.377739842661    0.497059561526    0.000000000000
 O    1.134789842661    0.742789561526    0.000000000000
 N    2.786189842661   -0.783270438474    0.000000000000
 H    3.780759842661   -0.987930438474    0.000000000000
 C    1.825059842661   -1.883430438474    0.000000000000
 H    1.187319842661   -1.843800438474    0.896360000000
 H    1.187319842661   -1.843800438474   -0.896360000000
 H    2.368049842661   -2.833860438474    0.000000000000
 K   -0.474010157339    0.093299561526    1.804140000000
 K   -0.474010157339    0.093299561526   -1.804140000000
 O   -0.441593386692    0.106380955193    0.000000000000
 C   -1.684545866189    0.352111445387    0.000000000000
 C   -2.221171800527    1.753415444595    0.000000000000
 H   -1.376876593005    2.450767654784    0.000000000000
 H   -2.842045353187    1.929283124337    0.890698940681
 H   -2.842045353187    1.929283124337   -0.890698940681
 N   -2.549463747553   -0.676472571531    0.000000000000
 H   -3.547091829649   -0.487275114063    0.000000000000
 C   -2.079275807101   -2.059608305129    0.000000000000
 H   -1.474440605682   -2.265635908033    0.896362443471
 H   -1.474440605682   -2.265635908033   -0.896362443471
 H   -2.943085087392   -2.731921163390    0.000000000000
