26

 C    3.497940624728    1.625370810293    0.000000000000
 H    2.982520624728    2.591540810293    0.000000000000
 H    4.139030624728    1.551750810293    0.890700000000
 H    4.139030624728    1.551750810293   -0.890700000000
 C    2.468450624728    0.533680810293    0.000000000000
 O    1.225500624728    0.779410810293    0.000000000000
 N    2.876900624728   -0.746649189707    0.000000000000
 H    3.871470624728   -0.951309189707    0.000000000000
 C    1.915770624728   -1.846809189707    0.000000000000
 H    1.278030624728   -1.807179189707    0.896360000000
 H    1.278030624728   -1.807179189707   -0.896360000000
 H    2.458760624728   -2.797239189707    0.000000000000
 K   -0.383299375272    0.129920810293    1.804140000000
 K   -0.383299375272    0.129920810293   -1.804140000000
 O   -0.629067880393    0.030694802843    0.000000000000
 C   -1.872020359891    0.276425293037    0.000000000000
 C   -2.408646294228    1.677729292245    0.000000000000
 H   -1.564351086706    2.375081502434    0.000000000000
 H   -3.029519846888    1.853596971986    0.890698940681
 H   -3.029519846888    1.853596971986   -0.890698940681
 N   -2.736938241254   -0.752158723882    0.000000000000
 H   -3.734566323350   -0.562961266413    0.000000000000
 C   -2.266750300802   -2.135294457479    0.000000000000
 H   -1.661915099384   -2.341322060384    0.896362443471
 H   -1.661915099384   -2.341322060384   -0.896362443471
 H   -3.130559581093   -2.807607315741    0.000000000000
