26

 C    3.557729817311    1.364847501947    0.000000000000
 H    3.042309817311    2.331017501947    0.000000000000
 H    4.198819817311    1.291227501947    0.890700000000
 H    4.198819817311    1.291227501947   -0.890700000000
 C    2.528239817311    0.273157501947    0.000000000000
 O    1.285289817311    0.518887501947    0.000000000000
 N    2.936689817311   -1.007172498053    0.000000000000
 H    3.931259817311   -1.211832498053    0.000000000000
 C    1.975559817311   -2.107332498053    0.000000000000
 H    1.337819817311   -2.067702498053    0.896360000000
 H    1.337819817311   -2.067702498053   -0.896360000000
 H    2.518549817311   -3.057762498053    0.000000000000
 K   -0.323510182689   -0.130602498053    1.804140000000
 K   -0.323510182689   -0.130602498053   -1.804140000000
 O   -0.940192388834   -0.379571706993    0.000000000000
 C   -2.183144868332   -0.133841216799    0.000000000000
 C   -3.212632275557   -1.225526139276    0.000000000000
 H   -2.697213075018   -2.191692558800    0.000000000000
 H   -3.853719932858   -1.151905321392   -0.890698940681
 H   -3.853719932858   -1.151905321392    0.890698940681
 N   -2.591593243084    1.146486064222    0.000000000000
 H   -3.586164703135    1.351144508835    0.000000000000
 C   -1.630459218504    2.246650844469    0.000000000000
 H   -0.992726743406    2.207024032352   -0.896362443471
 H   -0.992726743406    2.207024032352    0.896362443471
 H   -2.173452564160    3.197087206712    0.000000000000
