26

 C    3.587966744667    1.377054584870    0.000000000000
 H    3.072546744667    2.343224584870    0.000000000000
 H    4.229056744667    1.303434584870    0.890700000000
 H    4.229056744667    1.303434584870   -0.890700000000
 C    2.558476744667    0.285364584870    0.000000000000
 O    1.315526744667    0.531094584870    0.000000000000
 N    2.966926744667   -0.994965415130    0.000000000000
 H    3.961496744667   -1.199625415130    0.000000000000
 C    2.005796744667   -2.095125415130    0.000000000000
 H    1.368056744667   -2.055495415130    0.896360000000
 H    1.368056744667   -2.055495415130   -0.896360000000
 H    2.548786744667   -3.045555415130    0.000000000000
 K   -0.293273255333   -0.118395415130    1.804140000000
 K   -0.293273255333   -0.118395415130   -1.804140000000
 O   -1.002683886735   -0.404800424443    0.000000000000
 C   -2.245636366232   -0.159069934249    0.000000000000
 C   -3.275123773458   -1.250754856726    0.000000000000
 H   -2.759704572918   -2.216921276250    0.000000000000
 H   -3.916211430759   -1.177134038842   -0.890698940681
 H   -3.916211430759   -1.177134038842    0.890698940681
 N   -2.654084740984    1.121257346772    0.000000000000
 H   -3.648656201035    1.325915791385    0.000000000000
 C   -1.692950716405    2.221422127019    0.000000000000
 H   -1.055218241306    2.181795314902   -0.896362443471
 H   -1.055218241306    2.181795314902    0.896362443471
 H   -2.235944062060    3.171858489262    0.000000000000
