26

 C    3.678677526734    1.413675833637    0.000000000000
 H    3.163257526734    2.379845833637    0.000000000000
 H    4.319767526734    1.340055833637    0.890700000000
 H    4.319767526734    1.340055833637   -0.890700000000
 C    2.649187526734    0.321985833637    0.000000000000
 O    1.406237526734    0.567715833637    0.000000000000
 N    3.057637526734   -0.958344166363    0.000000000000
 H    4.052207526734   -1.163004166363    0.000000000000
 C    2.096507526734   -2.058504166363    0.000000000000
 H    1.458767526734   -2.018874166363    0.896360000000
 H    1.458767526734   -2.018874166363   -0.896360000000
 H    2.639497526734   -3.008934166363    0.000000000000
 K   -0.202562473266   -0.081774166363    1.804140000000
 K   -0.202562473266   -0.081774166363   -1.804140000000
 O   -1.190158380436   -0.480486576793    0.000000000000
 C   -2.433110859933   -0.234756086599    0.000000000000
 C   -3.462598267159   -1.326441009076    0.000000000000
 H   -2.947179066620   -2.292607428600    0.000000000000
 H   -4.103685924460   -1.252820191192   -0.890698940681
 H   -4.103685924460   -1.252820191192    0.890698940681
 N   -2.841559234685    1.045571194421    0.000000000000
 H   -3.836130694737    1.250229639035    0.000000000000
 C   -1.880425210106    2.145735974668    0.000000000000
 H   -1.242692735007    2.106109162552   -0.896362443471
 H   -1.242692735007    2.106109162552    0.896362443471
 H   -2.423418555761    3.096172336911    0.000000000000
