26

 C    3.708914454090    1.425882916559    0.000000000000
 H    3.193494454090    2.392052916559    0.000000000000
 H    4.350004454090    1.352262916559    0.890700000000
 H    4.350004454090    1.352262916559   -0.890700000000
 C    2.679424454090    0.334192916559    0.000000000000
 O    1.436474454090    0.579922916559    0.000000000000
 N    3.087874454090   -0.946137083441    0.000000000000
 H    4.082444454090   -1.150797083441    0.000000000000
 C    2.126744454090   -2.046297083441    0.000000000000
 H    1.489004454090   -2.006667083441    0.896360000000
 H    1.489004454090   -2.006667083441   -0.896360000000
 H    2.669734454090   -2.996727083441    0.000000000000
 K   -0.172325545910   -0.069567083441    1.804140000000
 K   -0.172325545910   -0.069567083441   -1.804140000000
 O   -1.252649878336   -0.505715294243    0.000000000000
 C   -2.495602357834   -0.259984804049    0.000000000000
 C   -3.525089765059   -1.351669726526    0.000000000000
 H   -3.009670564520   -2.317836146050    0.000000000000
 H   -4.166177422360   -1.278048908642   -0.890698940681
 H   -4.166177422360   -1.278048908642    0.890698940681
 N   -2.904050732586    1.020342476971    0.000000000000
 H   -3.898622192637    1.225000921584    0.000000000000
 C   -1.942916708006    2.120507257218    0.000000000000
 H   -1.305184232908    2.080880445102   -0.896362443471
 H   -1.305184232908    2.080880445102    0.896362443471
 H   -2.485910053662    3.070943619461    0.000000000000
