26

 C    3.769388308801    1.450297082404    0.000000000000
 H    3.253968308801    2.416467082404    0.000000000000
 H    4.410478308801    1.376677082404    0.890700000000
 H    4.410478308801    1.376677082404   -0.890700000000
 C    2.739898308801    0.358607082404    0.000000000000
 O    1.496948308801    0.604337082404    0.000000000000
 N    3.148348308801   -0.921722917596    0.000000000000
 H    4.142918308801   -1.126382917596    0.000000000000
 C    2.187218308801   -2.021882917596    0.000000000000
 H    1.549478308801   -1.982252917596    0.896360000000
 H    1.549478308801   -1.982252917596   -0.896360000000
 H    2.730208308801   -2.972312917596    0.000000000000
 K   -0.111851691199   -0.045152917596    1.804140000000
 K   -0.111851691199   -0.045152917596   -1.804140000000
 O   -1.377632874137   -0.556172729143    0.000000000000
 C   -2.620585353635   -0.310442238949    0.000000000000
 C   -3.650072760860   -1.402127161426    0.000000000000
 H   -3.134653560321   -2.368293580950    0.000000000000
 H   -4.291160418161   -1.328506343542   -0.890698940681
 H   -4.291160418161   -1.328506343542    0.890698940681
 N   -3.029033728386    0.969885042071    0.000000000000
 H   -4.023605188438    1.174543486684    0.000000000000
 C   -2.067899703807    2.070049822318    0.000000000000
 H   -1.430167228708    2.030423010201   -0.896362443471
 H   -1.430167228708    2.030423010201    0.896362443471
 H   -2.610893049463    3.020486184561    0.000000000000
