26

 C    3.829862163512    1.474711248249    0.000000000000
 H    3.314442163512    2.440881248249    0.000000000000
 H    4.470952163512    1.401091248249    0.890700000000
 H    4.470952163512    1.401091248249   -0.890700000000
 C    2.800372163512    0.383021248249    0.000000000000
 O    1.557422163512    0.628751248249    0.000000000000
 N    3.208822163512   -0.897308751751    0.000000000000
 H    4.203392163512   -1.101968751751    0.000000000000
 C    2.247692163512   -1.997468751751    0.000000000000
 H    1.609952163512   -1.957838751751    0.896360000000
 H    1.609952163512   -1.957838751751   -0.896360000000
 H    2.790682163512   -2.947898751751    0.000000000000
 K   -0.051377836488   -0.020738751751    1.804140000000
 K   -0.051377836488   -0.020738751751   -1.804140000000
 O   -1.502615869938   -0.606630164044    0.000000000000
 C   -2.745568349435   -0.360899673849    0.000000000000
 C   -3.775055756661   -1.452584596327    0.000000000000
 H   -3.259636556122   -2.418751015850    0.000000000000
 H   -4.416143413962   -1.378963778443   -0.890698940681
 H   -4.416143413962   -1.378963778443    0.890698940681
 N   -3.154016724187    0.919427607171    0.000000000000
 H   -4.148588184239    1.124086051784    0.000000000000
 C   -2.192882699608    2.019592387418    0.000000000000
 H   -1.555150224509    1.979965575301   -0.896362443471
 H   -1.555150224509    1.979965575301    0.896362443471
 H   -2.735876045263    2.970028749661    0.000000000000
