26

 C    3.890336018224    1.499125414094    0.000000000000
 H    3.374916018224    2.465295414094    0.000000000000
 H    4.531426018224    1.425505414094    0.890700000000
 H    4.531426018224    1.425505414094   -0.890700000000
 C    2.860846018224    0.407435414094    0.000000000000
 O    1.617896018224    0.653165414094    0.000000000000
 N    3.269296018224   -0.872894585906    0.000000000000
 H    4.263866018224   -1.077554585906    0.000000000000
 C    2.308166018224   -1.973054585906    0.000000000000
 H    1.670426018224   -1.933424585906    0.896360000000
 H    1.670426018224   -1.933424585906   -0.896360000000
 H    2.851156018224   -2.923484585906    0.000000000000
 K    0.009096018224    0.003675414094    1.804140000000
 K    0.009096018224    0.003675414094   -1.804140000000
 O   -1.627598865739   -0.657087598944    0.000000000000
 C   -2.870551345236   -0.411357108750    0.000000000000
 C   -3.900038752462   -1.503042031227    0.000000000000
 H   -3.384619551922   -2.469208450751    0.000000000000
 H   -4.541126409763   -1.429421213343   -0.890698940681
 H   -4.541126409763   -1.429421213343    0.890698940681
 N   -3.278999719988    0.868970172271    0.000000000000
 H   -4.273571180039    1.073628616884    0.000000000000
 C   -2.317865695409    1.969134952518    0.000000000000
 H   -1.680133220310    1.929508140401   -0.896362443471
 H   -1.680133220310    1.929508140401    0.896362443471
 H   -2.860859041064    2.919571314761    0.000000000000
