26

 C    3.920572945579    1.511332497016    0.000000000000
 H    3.405152945579    2.477502497016    0.000000000000
 H    4.561662945579    1.437712497016    0.890700000000
 H    4.561662945579    1.437712497016   -0.890700000000
 C    2.891082945579    0.419642497016    0.000000000000
 O    1.648132945579    0.665372497016    0.000000000000
 N    3.299532945579   -0.860687502984    0.000000000000
 H    4.294102945579   -1.065347502984    0.000000000000
 C    2.338402945579   -1.960847502984    0.000000000000
 H    1.700662945579   -1.921217502984    0.896360000000
 H    1.700662945579   -1.921217502984   -0.896360000000
 H    2.881392945579   -2.911277502984    0.000000000000
 K    0.039332945579    0.015882497016    1.804140000000
 K    0.039332945579    0.015882497016   -1.804140000000
 O   -1.690090363639   -0.682316316394    0.000000000000
 C   -2.933042843137   -0.436585826200    0.000000000000
 C   -3.962530250362   -1.528270748677    0.000000000000
 H   -3.447111049823   -2.494437168201    0.000000000000
 H   -4.603617907663   -1.454649930793   -0.890698940681
 H   -4.603617907663   -1.454649930793    0.890698940681
 N   -3.341491217888    0.843741454821    0.000000000000
 H   -4.336062677940    1.048399899434    0.000000000000
 C   -2.380357193309    1.943906235068    0.000000000000
 H   -1.742624718210    1.904279422951   -0.896362443471
 H   -1.742624718210    1.904279422951    0.896362443471
 H   -2.923350538965    2.894342597311    0.000000000000
