26

 C    3.950809872935    1.523539579938    0.000000000000
 H    3.435389872935    2.489709579938    0.000000000000
 H    4.591899872935    1.449919579938    0.890700000000
 H    4.591899872935    1.449919579938   -0.890700000000
 C    2.921319872935    0.431849579938    0.000000000000
 O    1.678369872935    0.677579579938    0.000000000000
 N    3.329769872935   -0.848480420062    0.000000000000
 H    4.324339872935   -1.053140420062    0.000000000000
 C    2.368639872935   -1.948640420062    0.000000000000
 H    1.730899872935   -1.909010420062    0.896360000000
 H    1.730899872935   -1.909010420062   -0.896360000000
 H    2.911629872935   -2.899070420062    0.000000000000
 K    0.069569872935    0.028089579938    1.804140000000
 K    0.069569872935    0.028089579938   -1.804140000000
 O   -1.752581861539   -0.707545033844    0.000000000000
 C   -2.995534341037   -0.461814543650    0.000000000000
 C   -4.025021748262   -1.553499466127    0.000000000000
 H   -3.509602547723   -2.519665885651    0.000000000000
 H   -4.666109405563   -1.479878648243   -0.890698940681
 H   -4.666109405563   -1.479878648243    0.890698940681
 N   -3.403982715789    0.818512737371    0.000000000000
 H   -4.398554175840    1.023171181984    0.000000000000
 C   -2.442848691209    1.918677517618    0.000000000000
 H   -1.805116216111    1.879050705501   -0.896362443471
 H   -1.805116216111    1.879050705501    0.896362443471
 H   -2.985842036865    2.869113879861    0.000000000000
