26

 C    4.071757582358    1.572367911628    0.000000000000
 H    3.556337582358    2.538537911628    0.000000000000
 H    4.712847582358    1.498747911628    0.890700000000
 H    4.712847582358    1.498747911628   -0.890700000000
 C    3.042267582358    0.480677911628    0.000000000000
 O    1.799317582358    0.726407911628    0.000000000000
 N    3.450717582358   -0.799652088372    0.000000000000
 H    4.445287582358   -1.004312088372    0.000000000000
 C    2.489587582358   -1.899812088372    0.000000000000
 H    1.851847582358   -1.860182088372    0.896360000000
 H    1.851847582358   -1.860182088372   -0.896360000000
 H    3.032577582358   -2.850242088372    0.000000000000
 K    0.190517582358    0.076917911628    1.804140000000
 K    0.190517582358    0.076917911628   -1.804140000000
 O   -2.002547853141   -0.808459903644    0.000000000000
 C   -3.245500332639   -0.562729413450    0.000000000000
 C   -4.274987739864   -1.654414335927    0.000000000000
 H   -3.759568539325   -2.620580755451    0.000000000000
 H   -4.916075397165   -1.580793518043   -0.890698940681
 H   -4.916075397165   -1.580793518043    0.890698940681
 N   -3.653948707390    0.717597867570    0.000000000000
 H   -4.648520167442    0.922256312183    0.000000000000
 C   -2.692814682811    1.817762647817    0.000000000000
 H   -2.055082207712    1.778135835701   -0.896362443471
 H   -2.055082207712    1.778135835701    0.896362443471
 H   -3.235808028467    2.768199010060    0.000000000000
