26

 C    4.162468364425    1.608989160395    0.000000000000
 H    3.647048364425    2.575159160395    0.000000000000
 H    4.803558364425    1.535369160395    0.890700000000
 H    4.803558364425    1.535369160395   -0.890700000000
 C    3.132978364425    0.517299160395    0.000000000000
 O    1.890028364425    0.763029160395    0.000000000000
 N    3.541428364425   -0.763030839605    0.000000000000
 H    4.535998364425   -0.967690839605    0.000000000000
 C    2.580298364425   -1.863190839605    0.000000000000
 H    1.942558364425   -1.823560839605    0.896360000000
 H    1.942558364425   -1.823560839605   -0.896360000000
 H    3.123288364425   -2.813620839605    0.000000000000
 K    0.281228364425    0.113539160395    1.804140000000
 K    0.281228364425    0.113539160395   -1.804140000000
 O   -2.190022346842   -0.884146055995    0.000000000000
 C   -3.432974826340   -0.638415565800    0.000000000000
 C   -4.462462233565   -1.730100488278    0.000000000000
 H   -3.947043033026   -2.696266907801    0.000000000000
 H   -5.103549890866   -1.656479670394   -0.890698940681
 H   -5.103549890866   -1.656479670394    0.890698940681
 N   -3.841423201092    0.641911715220    0.000000000000
 H   -4.835994661143    0.846570159833    0.000000000000
 C   -2.880289176512    1.742076495467    0.000000000000
 H   -2.242556701414    1.702449683350   -0.896362443471
 H   -2.242556701414    1.702449683350    0.896362443471
 H   -3.423282522168    2.692512857710    0.000000000000
