26

 C    4.374126855915    1.694438740852    0.000000000000
 H    3.858706855915    2.660608740852    0.000000000000
 H    5.015216855915    1.620818740852    0.890700000000
 H    5.015216855915    1.620818740852   -0.890700000000
 C    3.344636855915    0.602748740852    0.000000000000
 O    2.101686855915    0.848478740852    0.000000000000
 N    3.753086855915   -0.677581259148    0.000000000000
 H    4.747656855915   -0.882241259148    0.000000000000
 C    2.791956855915   -1.777741259148    0.000000000000
 H    2.154216855915   -1.738111259148    0.896360000000
 H    2.154216855915   -1.738111259148   -0.896360000000
 H    3.334946855915   -2.728171259148    0.000000000000
 K    0.492886855915    0.198988740852    1.804140000000
 K    0.492886855915    0.198988740852   -1.804140000000
 O   -2.627462832145   -1.060747078145    0.000000000000
 C   -3.870415311642   -0.815016587951    0.000000000000
 C   -4.899902718868   -1.906701510428    0.000000000000
 H   -4.384483518329   -2.872867929952    0.000000000000
 H   -5.540990376169   -1.833080692544   -0.890698940681
 H   -5.540990376169   -1.833080692544    0.890698940681
 N   -4.278863686394    0.465310693069    0.000000000000
 H   -5.273435146446    0.669969137682    0.000000000000
 C   -3.317729661815    1.565475473316    0.000000000000
 H   -2.679997186716    1.525848661200   -0.896362443471
 H   -2.679997186716    1.525848661200    0.896362443471
 H   -3.860723007470    2.515911835559    0.000000000000
