26

 C    4.464837637982    1.731059989619    0.000000000000
 H    3.949417637982    2.697229989619    0.000000000000
 H    5.105927637982    1.657439989619    0.890700000000
 H    5.105927637982    1.657439989619   -0.890700000000
 C    3.435347637982    0.639369989619    0.000000000000
 O    2.192397637982    0.885099989619    0.000000000000
 N    3.843797637982   -0.640960010381    0.000000000000
 H    4.838367637982   -0.845620010381    0.000000000000
 C    2.882667637982   -1.741120010381    0.000000000000
 H    2.244927637982   -1.701490010381    0.896360000000
 H    2.244927637982   -1.701490010381   -0.896360000000
 H    3.425657637982   -2.691550010381    0.000000000000
 K    0.583597637982    0.235609989619    1.804140000000
 K    0.583597637982    0.235609989619   -1.804140000000
 O   -2.814937325846   -1.136433230496    0.000000000000
 C   -4.057889805344   -0.890702740301    0.000000000000
 C   -5.087377212569   -1.982387662779    0.000000000000
 H   -4.571958012030   -2.948554082302    0.000000000000
 H   -5.728464869870   -1.908766844895   -0.890698940681
 H   -5.728464869870   -1.908766844895    0.890698940681
 N   -4.466338180096    0.389624540719    0.000000000000
 H   -5.460909640147    0.594282985332    0.000000000000
 C   -3.505204155516    1.489789320966    0.000000000000
 H   -2.867471680418    1.450162508849   -0.896362443471
 H   -2.867471680418    1.450162508849    0.896362443471
 H   -4.048197501172    2.440225683209    0.000000000000
