26

 C    4.495074565337    1.743267072542    0.000000000000
 H    3.979654565337    2.709437072542    0.000000000000
 H    5.136164565337    1.669647072542    0.890700000000
 H    5.136164565337    1.669647072542   -0.890700000000
 C    3.465584565337    0.651577072542    0.000000000000
 O    2.222634565337    0.897307072542    0.000000000000
 N    3.874034565337   -0.628752927458    0.000000000000
 H    4.868604565337   -0.833412927458    0.000000000000
 C    2.912904565337   -1.728912927458    0.000000000000
 H    2.275164565337   -1.689282927458    0.896360000000
 H    2.275164565337   -1.689282927458   -0.896360000000
 H    3.455894565337   -2.679342927458    0.000000000000
 K    0.613834565337    0.247817072542    1.804140000000
 K    0.613834565337    0.247817072542   -1.804140000000
 O   -2.877428823747   -1.161661947946    0.000000000000
 C   -4.120381303244   -0.915931457751    0.000000000000
 C   -5.149868710470   -2.007616380229    0.000000000000
 H   -4.634449509930   -2.973782799752    0.000000000000
 H   -5.790956367771   -1.933995562345   -0.890698940681
 H   -5.790956367771   -1.933995562345    0.890698940681
 N   -4.528829677996    0.364395823269    0.000000000000
 H   -5.523401138047    0.569054267882    0.000000000000
 C   -3.567695653417    1.464560603516    0.000000000000
 H   -2.929963178318    1.424933791399   -0.896362443471
 H   -2.929963178318    1.424933791399    0.896362443471
 H   -4.110688999072    2.414996965759    0.000000000000
