26

 C    4.525311492693    1.755474155464    0.000000000000
 H    4.009891492693    2.721644155464    0.000000000000
 H    5.166401492693    1.681854155464    0.890700000000
 H    5.166401492693    1.681854155464   -0.890700000000
 C    3.495821492693    0.663784155464    0.000000000000
 O    2.252871492693    0.909514155464    0.000000000000
 N    3.904271492693   -0.616545844536    0.000000000000
 H    4.898841492693   -0.821205844536    0.000000000000
 C    2.943141492693   -1.716705844536    0.000000000000
 H    2.305401492693   -1.677075844536    0.896360000000
 H    2.305401492693   -1.677075844536   -0.896360000000
 H    3.486131492693   -2.667135844536    0.000000000000
 K    0.644071492693    0.260024155464    1.804140000000
 K    0.644071492693    0.260024155464   -1.804140000000
 O   -2.939920321647   -1.186890665396    0.000000000000
 C   -4.182872801144   -0.941160175201    0.000000000000
 C   -5.212360208370   -2.032845097679    0.000000000000
 H   -4.696941007831   -2.999011517203    0.000000000000
 H   -5.853447865671   -1.959224279795   -0.890698940681
 H   -5.853447865671   -1.959224279795    0.890698940681
 N   -4.591321175896    0.339167105819    0.000000000000
 H   -5.585892635948    0.543825550432    0.000000000000
 C   -3.630187151317    1.439331886066    0.000000000000
 H   -2.992454676218    1.399705073949   -0.896362443471
 H   -2.992454676218    1.399705073949    0.896362443471
 H   -4.173180496972    2.389768248309    0.000000000000
