26

 C    4.616022274760    1.792095404231    0.000000000000
 H    4.100602274760    2.758265404231    0.000000000000
 H    5.257112274760    1.718475404231    0.890700000000
 H    5.257112274760    1.718475404231   -0.890700000000
 C    3.586532274760    0.700405404231    0.000000000000
 O    2.343582274760    0.946135404231    0.000000000000
 N    3.994982274760   -0.579924595769    0.000000000000
 H    4.989552274760   -0.784584595769    0.000000000000
 C    3.033852274760   -1.680084595769    0.000000000000
 H    2.396112274760   -1.640454595769    0.896360000000
 H    2.396112274760   -1.640454595769   -0.896360000000
 H    3.576842274760   -2.630514595769    0.000000000000
 K    0.734782274760    0.296645404231    1.804140000000
 K    0.734782274760    0.296645404231   -1.804140000000
 O   -3.127394815348   -1.262576817746    0.000000000000
 C   -4.370347294846   -1.016846327552    0.000000000000
 C   -5.399834702071   -2.108531250029    0.000000000000
 H   -4.884415501532   -3.074697669553    0.000000000000
 H   -6.040922359372   -2.034910432145   -0.890698940681
 H   -6.040922359372   -2.034910432145    0.890698940681
 N   -4.778795669598    0.263480953469    0.000000000000
 H   -5.773367129649    0.468139398082    0.000000000000
 C   -3.817661645018    1.363645733716    0.000000000000
 H   -3.179929169920    1.324018921599   -0.896362443471
 H   -3.179929169920    1.324018921599    0.896362443471
 H   -4.360654990674    2.314082095959    0.000000000000
