26

 C    4.646259202116    1.804302487154    0.000000000000
 H    4.130839202116    2.770472487154    0.000000000000
 H    5.287349202116    1.730682487154    0.890700000000
 H    5.287349202116    1.730682487154   -0.890700000000
 C    3.616769202116    0.712612487154    0.000000000000
 O    2.373819202116    0.958342487154    0.000000000000
 N    4.025219202116   -0.567717512846    0.000000000000
 H    5.019789202116   -0.772377512846    0.000000000000
 C    3.064089202116   -1.667877512846    0.000000000000
 H    2.426349202116   -1.628247512846    0.896360000000
 H    2.426349202116   -1.628247512846   -0.896360000000
 H    3.607079202116   -2.618307512846    0.000000000000
 K    0.765019202116    0.308852487154    1.804140000000
 K    0.765019202116    0.308852487154   -1.804140000000
 O   -3.189886313249   -1.287805535196    0.000000000000
 C   -4.432838792746   -1.042075045002    0.000000000000
 C   -5.462326199972   -2.133759967479    0.000000000000
 H   -4.946906999432   -3.099926387003    0.000000000000
 H   -6.103413857273   -2.060139149595   -0.890698940681
 H   -6.103413857273   -2.060139149595    0.890698940681
 N   -4.841287167498    0.238252236019    0.000000000000
 H   -5.835858627549    0.442910680632    0.000000000000
 C   -3.880153142919    1.338417016265    0.000000000000
 H   -3.242420667820    1.298790204149   -0.896362443471
 H   -3.242420667820    1.298790204149    0.896362443471
 H   -4.423146488574    2.288853378509    0.000000000000
