26

 C    4.676496129471    1.816509570076    0.000000000000
 H    4.161076129471    2.782679570076    0.000000000000
 H    5.317586129471    1.742889570076    0.890700000000
 H    5.317586129471    1.742889570076   -0.890700000000
 C    3.647006129471    0.724819570076    0.000000000000
 O    2.404056129471    0.970549570076    0.000000000000
 N    4.055456129471   -0.555510429924    0.000000000000
 H    5.050026129471   -0.760170429924    0.000000000000
 C    3.094326129471   -1.655670429924    0.000000000000
 H    2.456586129471   -1.616040429924    0.896360000000
 H    2.456586129471   -1.616040429924   -0.896360000000
 H    3.637316129471   -2.606100429924    0.000000000000
 K    0.795256129471    0.321059570076    1.804140000000
 K    0.795256129471    0.321059570076   -1.804140000000
 O   -3.252377811149   -1.313034252646    0.000000000000
 C   -4.495330290646   -1.067303762452    0.000000000000
 C   -5.524817697872   -2.158988684929    0.000000000000
 H   -5.009398497333   -3.125155104453    0.000000000000
 H   -6.165905355173   -2.085367867045   -0.890698940681
 H   -6.165905355173   -2.085367867045    0.890698940681
 N   -4.903778665398    0.213023518568    0.000000000000
 H   -5.898350125450    0.417681963182    0.000000000000
 C   -3.942644640819    1.313188298815    0.000000000000
 H   -3.304912165720    1.273561486699   -0.896362443471
 H   -3.304912165720    1.273561486699    0.896362443471
 H   -4.485637986474    2.263624661058    0.000000000000
