26

 C    4.736969984183    1.840923735921    0.000000000000
 H    4.221549984183    2.807093735921    0.000000000000
 H    5.378059984183    1.767303735921    0.890700000000
 H    5.378059984183    1.767303735921   -0.890700000000
 C    3.707479984183    0.749233735921    0.000000000000
 O    2.464529984183    0.994963735921    0.000000000000
 N    4.115929984183   -0.531096264079    0.000000000000
 H    5.110499984183   -0.735756264079    0.000000000000
 C    3.154799984183   -1.631256264079    0.000000000000
 H    2.517059984183   -1.591626264079    0.896360000000
 H    2.517059984183   -1.591626264079   -0.896360000000
 H    3.697789984183   -2.581686264079    0.000000000000
 K    0.855729984183    0.345473735921    1.804140000000
 K    0.855729984183    0.345473735921   -1.804140000000
 O   -3.377360806950   -1.363491687546    0.000000000000
 C   -4.620313286447   -1.117761197352    0.000000000000
 C   -5.649800693673   -2.209446119829    0.000000000000
 H   -5.134381493134   -3.175612539353    0.000000000000
 H   -6.290888350974   -2.135825301945   -0.890698940681
 H   -6.290888350974   -2.135825301945    0.890698940681
 N   -5.028761661199    0.162566083668    0.000000000000
 H   -6.023333121250    0.367224528281    0.000000000000
 C   -4.067627636620    1.262730863915    0.000000000000
 H   -3.429895161521    1.223104051799   -0.896362443471
 H   -3.429895161521    1.223104051799    0.896362443471
 H   -4.610620982275    2.213167226158    0.000000000000
