26

 C    4.797443838894    1.865337901766    0.000000000000
 H    4.282023838894    2.831507901766    0.000000000000
 H    5.438533838894    1.791717901766    0.890700000000
 H    5.438533838894    1.791717901766   -0.890700000000
 C    3.767953838894    0.773647901766    0.000000000000
 O    2.525003838894    1.019377901766    0.000000000000
 N    4.176403838894   -0.506682098234    0.000000000000
 H    5.170973838894   -0.711342098234    0.000000000000
 C    3.215273838894   -1.606842098234    0.000000000000
 H    2.577533838894   -1.567212098234    0.896360000000
 H    2.577533838894   -1.567212098234   -0.896360000000
 H    3.758263838894   -2.557272098234    0.000000000000
 K    0.916203838894    0.369887901766    1.804140000000
 K    0.916203838894    0.369887901766   -1.804140000000
 O   -3.502343802751   -1.413949122447    0.000000000000
 C   -4.745296282248   -1.168218632252    0.000000000000
 C   -5.774783689474   -2.259903554730    0.000000000000
 H   -5.259364488934   -3.226069974253    0.000000000000
 H   -6.415871346775   -2.186282736846   -0.890698940681
 H   -6.415871346775   -2.186282736846    0.890698940681
 N   -5.153744657000    0.112108648768    0.000000000000
 H   -6.148316117051    0.316767093381    0.000000000000
 C   -4.192610632421    1.212273429015    0.000000000000
 H   -3.554878157322    1.172646616898   -0.896362443471
 H   -3.554878157322    1.172646616898    0.896362443471
 H   -4.735603978076    2.162709791258    0.000000000000
