26

 C    4.857917693605    1.889752067610    0.000000000000
 H    4.342497693605    2.855922067610    0.000000000000
 H    5.499007693605    1.816132067610    0.890700000000
 H    5.499007693605    1.816132067610   -0.890700000000
 C    3.828427693605    0.798062067610    0.000000000000
 O    2.585477693605    1.043792067610    0.000000000000
 N    4.236877693605   -0.482267932390    0.000000000000
 H    5.231447693605   -0.686927932390    0.000000000000
 C    3.275747693605   -1.582427932390    0.000000000000
 H    2.638007693605   -1.542797932390    0.896360000000
 H    2.638007693605   -1.542797932390   -0.896360000000
 H    3.818737693605   -2.532857932390    0.000000000000
 K    0.976677693605    0.394302067610    1.804140000000
 K    0.976677693605    0.394302067610   -1.804140000000
 O   -3.627326798551   -1.464406557347    0.000000000000
 C   -4.870279278049   -1.218676067152    0.000000000000
 C   -5.899766685274   -2.310360989630    0.000000000000
 H   -5.384347484735   -3.276527409154    0.000000000000
 H   -6.540854342575   -2.236740171746   -0.890698940681
 H   -6.540854342575   -2.236740171746    0.890698940681
 N   -5.278727652801    0.061651213868    0.000000000000
 H   -6.273299112852    0.266309658481    0.000000000000
 C   -4.317593628221    1.161815994115    0.000000000000
 H   -3.679861153123    1.122189181998   -0.896362443471
 H   -3.679861153123    1.122189181998    0.896362443471
 H   -4.860586973877    2.112252356358    0.000000000000
