26

 C    4.888154620961    1.901959150533    0.000000000000
 H    4.372734620961    2.868129150533    0.000000000000
 H    5.529244620961    1.828339150533    0.890700000000
 H    5.529244620961    1.828339150533   -0.890700000000
 C    3.858664620961    0.810269150533    0.000000000000
 O    2.615714620961    1.055999150533    0.000000000000
 N    4.267114620961   -0.470060849467    0.000000000000
 H    5.261684620961   -0.674720849467    0.000000000000
 C    3.305984620961   -1.570220849467    0.000000000000
 H    2.668244620961   -1.530590849467    0.896360000000
 H    2.668244620961   -1.530590849467   -0.896360000000
 H    3.848974620961   -2.520650849467    0.000000000000
 K    1.006914620961    0.406509150533    1.804140000000
 K    1.006914620961    0.406509150533   -1.804140000000
 O   -3.689818296452   -1.489635274797    0.000000000000
 C   -4.932770775949   -1.243904784603    0.000000000000
 C   -5.962258183175   -2.335589707080    0.000000000000
 H   -5.446838982635   -3.301756126604    0.000000000000
 H   -6.603345840476   -2.261968889196   -0.890698940681
 H   -6.603345840476   -2.261968889196    0.890698940681
 N   -5.341219150701    0.036422496418    0.000000000000
 H   -6.335790610752    0.241080941031    0.000000000000
 C   -4.380085126122    1.136587276665    0.000000000000
 H   -3.742352651023    1.096960464548   -0.896362443471
 H   -3.742352651023    1.096960464548    0.896362443471
 H   -4.923078471777    2.087023638908    0.000000000000
