26

 C    5.069576185095    1.975201648067    0.000000000000
 H    4.554156185095    2.941371648067    0.000000000000
 H    5.710666185095    1.901581648067    0.890700000000
 H    5.710666185095    1.901581648067   -0.890700000000
 C    4.040086185095    0.883511648067    0.000000000000
 O    2.797136185095    1.129241648067    0.000000000000
 N    4.448536185095   -0.396818351933    0.000000000000
 H    5.443106185095   -0.601478351933    0.000000000000
 C    3.487406185095   -1.496978351933    0.000000000000
 H    2.849666185095   -1.457348351933    0.896360000000
 H    2.849666185095   -1.457348351933   -0.896360000000
 H    4.030396185095   -2.447408351933    0.000000000000
 K    1.188336185095    0.479751648067    1.804140000000
 K    1.188336185095    0.479751648067   -1.804140000000
 O   -4.064767283854   -1.641007579497    0.000000000000
 C   -5.307719763352   -1.395277089303    0.000000000000
 C   -6.337207170577   -2.486962011780    0.000000000000
 H   -5.821787970038   -3.453128431304    0.000000000000
 H   -6.978294827878   -2.413341193896   -0.890698940681
 H   -6.978294827878   -2.413341193896    0.890698940681
 N   -5.716168138103   -0.114949808283    0.000000000000
 H   -6.710739598155    0.089708636330    0.000000000000
 C   -4.755034113524    0.985214971964    0.000000000000
 H   -4.117301638425    0.945588159848   -0.896362443471
 H   -4.117301638425    0.945588159848    0.896362443471
 H   -5.298027459180    1.935651334207    0.000000000000
