26

 C    5.281234676585    2.060651228524    0.000000000000
 H    4.765814676585    3.026821228524    0.000000000000
 H    5.922324676585    1.987031228524    0.890700000000
 H    5.922324676585    1.987031228524   -0.890700000000
 C    4.251744676585    0.968961228524    0.000000000000
 O    3.008794676585    1.214691228524    0.000000000000
 N    4.660194676585   -0.311368771476    0.000000000000
 H    5.654764676585   -0.516028771476    0.000000000000
 C    3.699064676585   -1.411528771476    0.000000000000
 H    3.061324676585   -1.371898771476    0.896360000000
 H    3.061324676585   -1.371898771476   -0.896360000000
 H    4.242054676585   -2.361958771476    0.000000000000
 K    1.399994676585    0.565201228524    1.804140000000
 K    1.399994676585    0.565201228524   -1.804140000000
 O   -4.502207769157   -1.817608601648    0.000000000000
 C   -5.745160248654   -1.571878111454    0.000000000000
 C   -6.774647655880   -2.663563033931    0.000000000000
 H   -6.259228455341   -3.629729453455    0.000000000000
 H   -7.415735313181   -2.589942216047   -0.890698940681
 H   -7.415735313181   -2.589942216047    0.890698940681
 N   -6.153608623406   -0.291550830433    0.000000000000
 H   -7.148180083458   -0.086892385820    0.000000000000
 C   -5.192474598827    0.808613949814    0.000000000000
 H   -4.554742123728    0.768987137697   -0.896362443471
 H   -4.554742123728    0.768987137697    0.896362443471
 H   -5.735467944482    1.759050312057    0.000000000000
