26

 C    5.341708531296    2.085065394369    0.000000000000
 H    4.826288531296    3.051235394369    0.000000000000
 H    5.982798531296    2.011445394369    0.890700000000
 H    5.982798531296    2.011445394369   -0.890700000000
 C    4.312218531296    0.993375394369    0.000000000000
 O    3.069268531296    1.239105394369    0.000000000000
 N    4.720668531296   -0.286954605631    0.000000000000
 H    5.715238531296   -0.491614605631    0.000000000000
 C    3.759538531296   -1.387114605631    0.000000000000
 H    3.121798531296   -1.347484605631    0.896360000000
 H    3.121798531296   -1.347484605631   -0.896360000000
 H    4.302528531296   -2.337544605631    0.000000000000
 K    1.460468531296    0.589615394369    1.804140000000
 K    1.460468531296    0.589615394369   -1.804140000000
 O   -4.627190764958   -1.868066036548    0.000000000000
 C   -5.870143244455   -1.622335546354    0.000000000000
 C   -6.899630651681   -2.714020468831    0.000000000000
 H   -6.384211451141   -3.680186888355    0.000000000000
 H   -7.540718308982   -2.640399650947   -0.890698940681
 H   -7.540718308982   -2.640399650947    0.890698940681
 N   -6.278591619207   -0.342008265334    0.000000000000
 H   -7.273163079258   -0.137349820721    0.000000000000
 C   -5.317457594628    0.758156514913    0.000000000000
 H   -4.679725119529    0.718529702797   -0.896362443471
 H   -4.679725119529    0.718529702797    0.896362443471
 H   -5.860450940283    1.708592877156    0.000000000000
