26

 C    5.462656240719    2.133893726058    0.000000000000
 H    4.947236240719    3.100063726058    0.000000000000
 H    6.103746240719    2.060273726058    0.890700000000
 H    6.103746240719    2.060273726058   -0.890700000000
 C    4.433166240719    1.042203726058    0.000000000000
 O    3.190216240719    1.287933726058    0.000000000000
 N    4.841616240719   -0.238126273942    0.000000000000
 H    5.836186240719   -0.442786273942    0.000000000000
 C    3.880486240719   -1.338286273942    0.000000000000
 H    3.242746240719   -1.298656273942    0.896360000000
 H    3.242746240719   -1.298656273942   -0.896360000000
 H    4.423476240719   -2.288716273942    0.000000000000
 K    1.581416240719    0.638443726058    1.804140000000
 K    1.581416240719    0.638443726058   -1.804140000000
 O   -4.877156756559   -1.968980906349    0.000000000000
 C   -6.120109236057   -1.723250416154    0.000000000000
 C   -7.149596643282   -2.814935338632    0.000000000000
 H   -6.634177442743   -3.781101758155    0.000000000000
 H   -7.790684300583   -2.741314520748   -0.890698940681
 H   -7.790684300583   -2.741314520748    0.890698940681
 N   -6.528557610809   -0.442923135134    0.000000000000
 H   -7.523129070860   -0.238264690521    0.000000000000
 C   -5.567423586229    0.657241645113    0.000000000000
 H   -4.929691111131    0.617614832996   -0.896362443471
 H   -4.929691111131    0.617614832996    0.896362443471
 H   -6.110416931885    1.607678007356    0.000000000000
