26

 C    5.523130095430    2.158307891903    0.000000000000
 H    5.007710095430    3.124477891903    0.000000000000
 H    6.164220095430    2.084687891903    0.890700000000
 H    6.164220095430    2.084687891903   -0.890700000000
 C    4.493640095430    1.066617891903    0.000000000000
 O    3.250690095430    1.312347891903    0.000000000000
 N    4.902090095430   -0.213712108097    0.000000000000
 H    5.896660095430   -0.418372108097    0.000000000000
 C    3.940960095430   -1.313872108097    0.000000000000
 H    3.303220095430   -1.274242108097    0.896360000000
 H    3.303220095430   -1.274242108097   -0.896360000000
 H    4.483950095430   -2.264302108097    0.000000000000
 K    1.641890095430    0.662857891903    1.804140000000
 K    1.641890095430    0.662857891903   -1.804140000000
 O   -5.002139752360   -2.019438341249    0.000000000000
 C   -6.245092231858   -1.773707851055    0.000000000000
 C   -7.274579639083   -2.865392773532    0.000000000000
 H   -6.759160438544   -3.831559193056    0.000000000000
 H   -7.915667296384   -2.791771955648   -0.890698940681
 H   -7.915667296384   -2.791771955648    0.890698940681
 N   -6.653540606609   -0.493380570034    0.000000000000
 H   -7.648112066661   -0.288722125421    0.000000000000
 C   -5.692406582030    0.606784210213    0.000000000000
 H   -5.054674106931    0.567157398096   -0.896362443471
 H   -5.054674106931    0.567157398096    0.896362443471
 H   -6.235399927686    1.557220572456    0.000000000000
