26

 C    5.613840877497    2.194929140670    0.000000000000
 H    5.098420877497    3.161099140670    0.000000000000
 H    6.254930877497    2.121309140670    0.890700000000
 H    6.254930877497    2.121309140670   -0.890700000000
 C    4.584350877497    1.103239140670    0.000000000000
 O    3.341400877497    1.348969140670    0.000000000000
 N    4.992800877497   -0.177090859330    0.000000000000
 H    5.987370877497   -0.381750859330    0.000000000000
 C    4.031670877497   -1.277250859330    0.000000000000
 H    3.393930877497   -1.237620859330    0.896360000000
 H    3.393930877497   -1.237620859330   -0.896360000000
 H    4.574660877497   -2.227680859330    0.000000000000
 K    1.732600877497    0.699479140670    1.804140000000
 K    1.732600877497    0.699479140670   -1.804140000000
 O   -5.189614246061   -2.095124493599    0.000000000000
 C   -6.432566725559   -1.849394003405    0.000000000000
 C   -7.462054132784   -2.941078925882    0.000000000000
 H   -6.946634932245   -3.907245345406    0.000000000000
 H   -8.103141790085   -2.867458107998   -0.890698940681
 H   -8.103141790085   -2.867458107998    0.890698940681
 N   -6.841015100311   -0.569066722384    0.000000000000
 H   -7.835586560362   -0.364408277771    0.000000000000
 C   -5.879881075731    0.531098057863    0.000000000000
 H   -5.242148600633    0.491471245746   -0.896362443471
 H   -5.242148600633    0.491471245746    0.896362443471
 H   -6.422874421387    1.481534420106    0.000000000000
