26

 C    5.644077804853    2.207136223593    0.000000000000
 H    5.128657804853    3.173306223593    0.000000000000
 H    6.285167804853    2.133516223593    0.890700000000
 H    6.285167804853    2.133516223593   -0.890700000000
 C    4.614587804853    1.115446223593    0.000000000000
 O    3.371637804853    1.361176223593    0.000000000000
 N    5.023037804853   -0.164883776407    0.000000000000
 H    6.017607804853   -0.369543776407    0.000000000000
 C    4.061907804853   -1.265043776407    0.000000000000
 H    3.424167804853   -1.225413776407    0.896360000000
 H    3.424167804853   -1.225413776407   -0.896360000000
 H    4.604897804853   -2.215473776407    0.000000000000
 K    1.762837804853    0.711686223593    1.804140000000
 K    1.762837804853    0.711686223593   -1.804140000000
 O   -5.252105743962   -2.120353211049    0.000000000000
 C   -6.495058223459   -1.874622720855    0.000000000000
 C   -7.524545630685   -2.966307643332    0.000000000000
 H   -7.009126430145   -3.932474062856    0.000000000000
 H   -8.165633287986   -2.892686825448   -0.890698940681
 H   -8.165633287986   -2.892686825448    0.890698940681
 N   -6.903506598211   -0.594295439835    0.000000000000
 H   -7.898078058262   -0.389636995221    0.000000000000
 C   -5.942372573632    0.505869340412    0.000000000000
 H   -5.304640098533    0.466242528296   -0.896362443471
 H   -5.304640098533    0.466242528296    0.896362443471
 H   -6.485365919287    1.456305702655    0.000000000000
