26

 C    5.734788586920    2.243757472360    0.000000000000
 H    5.219368586920    3.209927472360    0.000000000000
 H    6.375878586920    2.170137472360    0.890700000000
 H    6.375878586920    2.170137472360   -0.890700000000
 C    4.705298586920    1.152067472360    0.000000000000
 O    3.462348586920    1.397797472360    0.000000000000
 N    5.113748586920   -0.128262527640    0.000000000000
 H    6.108318586920   -0.332922527640    0.000000000000
 C    4.152618586920   -1.228422527640    0.000000000000
 H    3.514878586920   -1.188792527640    0.896360000000
 H    3.514878586920   -1.188792527640   -0.896360000000
 H    4.695608586920   -2.178852527640    0.000000000000
 K    1.853548586920    0.748307472360    1.804140000000
 K    1.853548586920    0.748307472360   -1.804140000000
 O   -5.439580237663   -2.196039363399    0.000000000000
 C   -6.682532717160   -1.950308873205    0.000000000000
 C   -7.712020124386   -3.041993795682    0.000000000000
 H   -7.196600923847   -4.008160215206    0.000000000000
 H   -8.353107781687   -2.968372977798   -0.890698940681
 H   -8.353107781687   -2.968372977798    0.890698940681
 N   -7.090981091912   -0.669981592185    0.000000000000
 H   -8.085552551964   -0.465323147572    0.000000000000
 C   -6.129847067333    0.430183188062    0.000000000000
 H   -5.492114592234    0.390556375945   -0.896362443471
 H   -5.492114592234    0.390556375945    0.896362443471
 H   -6.672840412988    1.380619550305    0.000000000000
