26

 C    5.765025514276    2.255964555283    0.000000000000
 H    5.249605514276    3.222134555283    0.000000000000
 H    6.406115514276    2.182344555283    0.890700000000
 H    6.406115514276    2.182344555283   -0.890700000000
 C    4.735535514276    1.164274555283    0.000000000000
 O    3.492585514276    1.410004555283    0.000000000000
 N    5.143985514276   -0.116055444717    0.000000000000
 H    6.138555514276   -0.320715444717    0.000000000000
 C    4.182855514276   -1.216215444717    0.000000000000
 H    3.545115514276   -1.176585444717    0.896360000000
 H    3.545115514276   -1.176585444717   -0.896360000000
 H    4.725845514276   -2.166645444717    0.000000000000
 K    1.883785514276    0.760514555283    1.804140000000
 K    1.883785514276    0.760514555283   -1.804140000000
 O   -5.502071735563   -2.221268080849    0.000000000000
 C   -6.745024215061   -1.975537590655    0.000000000000
 C   -7.774511622286   -3.067222513133    0.000000000000
 H   -7.259092421747   -4.033388932656    0.000000000000
 H   -8.415599279587   -2.993601695249   -0.890698940681
 H   -8.415599279587   -2.993601695249    0.890698940681
 N   -7.153472589813   -0.695210309635    0.000000000000
 H   -8.148044049864   -0.490551865022    0.000000000000
 C   -6.192338565233    0.404954470612    0.000000000000
 H   -5.554606090135    0.365327658495   -0.896362443471
 H   -5.554606090135    0.365327658495    0.896362443471
 H   -6.735331910889    1.355390832855    0.000000000000
