17

 N   -1.618145665264   -1.574016337621    0.054070549272
 C   -0.407957598420   -0.918810133945    0.058032173240
 N    0.825454815883   -1.517487828407    0.070070458145
 C    1.795878015939   -0.627311686796    0.058198001172
 N    1.592801178526    0.734326446718    0.051362840830
 H    2.396628303777    1.354286986473   -0.030625181592
 N    3.121332770176   -1.045986408476   -0.020149302063
 H    3.775868975508   -0.514183184076    0.547491474667
 H    3.200137857567   -2.046686552411    0.141434035926
 C    0.333527436209    1.420360150249    0.064316627507
 O    0.305947067104    2.648533235026    0.060228499079
 C   -0.739257689767    0.446666760975    0.070517825447
 N   -2.110330991536    0.632997806288    0.070442640731
 C   -2.603854486047   -0.605605207757    0.060112541066
 H   -3.661352399315   -0.859751829589    0.057165896640
 H   -1.743242661795   -2.580599422853    0.045410998241
LI   -2.108586815541    0.645307389349   -1.229497908685
