17

 N   -1.618163531010   -1.574142425747    0.067385952893
 C   -0.407975464166   -0.918936222071    0.071347576861
 N    0.825436950137   -1.517613916533    0.083385861766
 C    1.795860150193   -0.627437774922    0.071513404793
 N    1.592783312780    0.734200358592    0.064678244451
 H    2.396610438031    1.354160898347   -0.017309777971
 N    3.121314904430   -1.046112496602   -0.006833898442
 H    3.775851109762   -0.514309272202    0.560806878288
 H    3.200119991821   -2.046812640537    0.154749439547
 C    0.333509570463    1.420234062123    0.077632031128
 O    0.305929201358    2.648407146900    0.073543902700
 C   -0.739275555513    0.446540672849    0.083833229068
 N   -2.110348857282    0.632871718162    0.083758044352
 C   -2.603872351793   -0.605731295883    0.073427944687
 H   -3.661370265061   -0.859877917715    0.070481300261
 H   -1.743260527541   -2.580725510979    0.058726401862
LI   -2.108202179135    0.648021974238   -1.516168785698
