17

 N   -1.618169486259   -1.574184455122    0.071824420767
 C   -0.407981419415   -0.918978251446    0.075786044735
 N    0.825430994888   -1.517655945908    0.087824329640
 C    1.795854194944   -0.627479804297    0.075951872667
 N    1.592777357531    0.734158329217    0.069116712325
 H    2.396604482782    1.354118868972   -0.012871310097
 N    3.121308949181   -1.046154525977   -0.002395430568
 H    3.775845154513   -0.514351301577    0.565245346162
 H    3.200114036572   -2.046854669912    0.159187907421
 C    0.333503615214    1.420192032748    0.082070499002
 O    0.305923246109    2.648365117525    0.077982370574
 C   -0.739281510762    0.446498643474    0.088271696942
 N   -2.110354812531    0.632829688787    0.088196512226
 C   -2.603878307042   -0.605773325258    0.077866412561
 H   -3.661376220310   -0.859919947090    0.074919768135
 H   -1.743266482790   -2.580767540354    0.063164869736
LI   -2.108073966999    0.648926835867   -1.611725744702
