17

 N   -1.618175441507   -1.574226484497    0.076262888641
 C   -0.407987374663   -0.919020280821    0.080224512609
 N    0.825425039640   -1.517697975283    0.092262797514
 C    1.795848239696   -0.627521833672    0.080390340541
 N    1.592771402283    0.734116299842    0.073555180199
 H    2.396598527534    1.354076839597   -0.008432842223
 N    3.121302993933   -1.046196555352    0.002043037306
 H    3.775839199265   -0.514393330952    0.569683814036
 H    3.200108081324   -2.046896699287    0.163626375295
 C    0.333497659966    1.420150003373    0.086508966876
 O    0.305917290861    2.648323088150    0.082420838448
 C   -0.739287466010    0.446456614099    0.092710164816
 N   -2.110360767779    0.632787659412    0.092634980100
 C   -2.603884262290   -0.605815354633    0.082304880435
 H   -3.661382175558   -0.859961976465    0.079358236009
 H   -1.743272438038   -2.580809569729    0.067603337610
LI   -2.107945754863    0.649831697497   -1.707282703707
