17

 N   -1.618181396756   -1.574268513872    0.080701356515
 C   -0.407993329912   -0.919062310196    0.084662980483
 N    0.825419084391   -1.517740004658    0.096701265388
 C    1.795842284447   -0.627563863047    0.084828808415
 N    1.592765447034    0.734074270467    0.077993648073
 H    2.396592572285    1.354034810222   -0.003994374349
 N    3.121297038684   -1.046238584727    0.006481505180
 H    3.775833244016   -0.514435360327    0.574122281910
 H    3.200102126075   -2.046938728662    0.168064843169
 C    0.333491704717    1.420107973998    0.090947434750
 O    0.305911335612    2.648281058775    0.086859306322
 C   -0.739293421259    0.446414584724    0.097148632690
 N   -2.110366723028    0.632745630037    0.097073447974
 C   -2.603890217539   -0.605857384008    0.086743348309
 H   -3.661388130807   -0.860004005840    0.083796703883
 H   -1.743278393287   -2.580851599104    0.072041805484
LI   -2.107817542728    0.650736559126   -1.802839662711
