17

 N   -1.618663771891   -1.577672893255    0.440217254292
 C   -0.408475705047   -0.922466689579    0.444178878260
 N    0.824936709256   -1.521144384041    0.456217163165
 C    1.795359909312   -0.630968242430    0.444344706192
 N    1.592283071899    0.730669891084    0.437509545850
 H    2.396110197150    1.350630430839    0.355521523428
 N    3.120814663549   -1.049642964110    0.365997402957
 H    3.775350868881   -0.517839739710    0.933638179687
 H    3.199619750940   -2.050343108045    0.527580740946
 C    0.333009329582    1.416703594615    0.450463332527
 O    0.305428960477    2.644876679392    0.446375204099
 C   -0.739775796394    0.443010205341    0.456664530467
 N   -2.110849098163    0.629341250654    0.456589345751
 C   -2.604372592674   -0.609261763391    0.446259246086
 H   -3.661870505942   -0.863408385223    0.443312601660
 H   -1.743760768422   -2.584255978487    0.431557703261
LI   -2.097432359741    0.724030351125   -9.542953342062
