17

 N   -1.618223083496   -1.574562719498    0.111770631631
 C   -0.408035016652   -0.919356515822    0.115732255599
 N    0.825377397651   -1.518034210284    0.127770540504
 C    1.795800597707   -0.627858068673    0.115898083531
 N    1.592723760294    0.733780064841    0.109062923189
 H    2.396550885545    1.353740604596    0.027074900767
 N    3.121255351944   -1.046532790353    0.037550780296
 H    3.775791557276   -0.514729565953    0.605191557026
 H    3.200060439335   -2.047232934288    0.199134118285
 C    0.333450017977    1.419813768372    0.122016709866
 O    0.305869648872    2.647986853149    0.117928581438
 C   -0.739335107999    0.446120379098    0.128217907806
 N   -2.110408409768    0.632451424411    0.128142723090
 C   -2.603931904279   -0.606151589634    0.117812623425
 H   -3.661429817547   -0.860298211466    0.114865978999
 H   -1.743320080027   -2.581145804730    0.103111080600
LI   -2.106920057778    0.657070590534   -2.471738375741
