17

 N   -1.618240949242   -1.574688807623    0.125086035252
 C   -0.408052882398   -0.919482603947    0.129047659220
 N    0.825359531905   -1.518160298409    0.141085944125
 C    1.795782731961   -0.627984156798    0.129213487152
 N    1.592705894548    0.733653976716    0.122378326810
 H    2.396533019799    1.353614516471    0.040390304388
 N    3.121237486198   -1.046658878478    0.050866183917
 H    3.775773691530   -0.514855654078    0.618506960647
 H    3.200042573589   -2.047359022413    0.212449521906
 C    0.333432152231    1.419687680247    0.135332113487
 O    0.305851783126    2.647860765024    0.131243985059
 C   -0.739352973745    0.445994290973    0.141533311427
 N   -2.110426275514    0.632325336286    0.141458126711
 C   -2.603949770025   -0.606277677759    0.131128027046
 H   -3.661447683293   -0.860424299591    0.128181382620
 H   -1.743337945773   -2.581271892855    0.116426484221
LI   -2.106535421371    0.659785175423   -2.758409252754
