17

 N   -1.618246904490   -1.574730836998    0.129524503126
 C   -0.408058837646   -0.919524633322    0.133486127094
 N    0.825353576657   -1.518202327784    0.145524411999
 C    1.795776776713   -0.628026186173    0.133651955026
 N    1.592699939300    0.733611947341    0.126816794684
 H    2.396527064551    1.353572487096    0.044828772262
 N    3.121231530950   -1.046700907853    0.055304651791
 H    3.775767736282   -0.514897683453    0.622945428521
 H    3.200036618341   -2.047401051788    0.216887989780
 C    0.333426196983    1.419645650872    0.139770581361
 O    0.305845827878    2.647818735649    0.135682452933
 C   -0.739358928993    0.445952261598    0.145971779301
 N   -2.110432230762    0.632283306911    0.145896594585
 C   -2.603955725273   -0.606319707134    0.135566494920
 H   -3.661453638541   -0.860466328966    0.132619850494
 H   -1.743343901021   -2.581313922230    0.120864952095
LI   -2.106407209236    0.660690037052   -2.853966211758
