17

 N   -1.618276680733   -1.574940983874    0.151716842495
 C   -0.408088613889   -0.919734780198    0.155678466463
 N    0.825323800414   -1.518412474660    0.167716751368
 C    1.795747000470   -0.628236333049    0.155844294395
 N    1.592670163057    0.733401800465    0.149009134053
 H    2.396497288308    1.353362340220    0.067021111631
 N    3.121201754707   -1.046911054729    0.077496991160
 H    3.775737960039   -0.515107830329    0.645137767890
 H    3.200006842098   -2.047611198664    0.239080329149
 C    0.333396420740    1.419435503996    0.161962920730
 O    0.305816051635    2.647608588773    0.157874792302
 C   -0.739388705236    0.445742114722    0.168164118670
 N   -2.110462007005    0.632073160035    0.168088933954
 C   -2.603985501516   -0.606529854010    0.157758834289
 H   -3.661483414784   -0.860676475842    0.154812189863
 H   -1.743373677264   -2.581524069106    0.143057291464
LI   -2.105766148557    0.665214345200   -3.331751006780
