17

 N   -1.618294546479   -1.575067071999    0.165032246117
 C   -0.408106479635   -0.919860868323    0.168993870085
 N    0.825305934668   -1.518538562785    0.181032154990
 C    1.795729134724   -0.628362421174    0.169159698017
 N    1.592652297311    0.733275712340    0.162324537675
 H    2.396479422562    1.353236252095    0.080336515253
 N    3.121183888961   -1.047037142854    0.090812394782
 H    3.775720094293   -0.515233918454    0.658453171512
 H    3.199988976352   -2.047737286789    0.252395732771
 C    0.333378554994    1.419309415871    0.175278324352
 O    0.305798185889    2.647482500648    0.171190195924
 C   -0.739406570982    0.445616026597    0.181479522292
 N   -2.110479872751    0.631947071910    0.181404337576
 C   -2.604003367262   -0.606655942135    0.171074237911
 H   -3.661501280530   -0.860802563967    0.168127593485
 H   -1.743391543010   -2.581650157231    0.156372695086
LI   -2.105381512151    0.667928930089   -3.618421883793
