17

 N   -1.618300501728   -1.575109101374    0.169470713990
 C   -0.408112434884   -0.919902897698    0.173432337958
 N    0.825299979419   -1.518580592160    0.185470622863
 C    1.795723179475   -0.628404450549    0.173598165890
 N    1.592646342062    0.733233682965    0.166763005548
 H    2.396473467313    1.353194222720    0.084774983126
 N    3.121177933712   -1.047079172229    0.095250862655
 H    3.775714139044   -0.515275947829    0.662891639385
 H    3.199983021103   -2.047779316164    0.256834200644
 C    0.333372599745    1.419267386496    0.179716792225
 O    0.305792230640    2.647440471273    0.175628663797
 C   -0.739412526231    0.445573997222    0.185917990165
 N   -2.110485828000    0.631905042535    0.185842805449
 C   -2.604009322511   -0.606697971510    0.175512705784
 H   -3.661507235779   -0.860844593342    0.172566061358
 H   -1.743397498259   -2.581692186606    0.160811162959
LI   -2.105253300015    0.668833791719   -3.713978842797
