17

 N   -1.618306456976   -1.575151130749    0.173909181864
 C   -0.408118390132   -0.919944927073    0.177870805832
 N    0.825294024171   -1.518622621535    0.189909090737
 C    1.795717224227   -0.628446479924    0.178036633764
 N    1.592640386814    0.733191653590    0.171201473422
 H    2.396467512065    1.353152193345    0.089213451000
 N    3.121171978464   -1.047121201604    0.099689330529
 H    3.775708183796   -0.515317977204    0.667330107259
 H    3.199977065855   -2.047821345539    0.261272668518
 C    0.333366644497    1.419225357121    0.184155260099
 O    0.305786275392    2.647398441898    0.180067131671
 C   -0.739418481479    0.445531967847    0.190356458039
 N   -2.110491783248    0.631863013160    0.190281273323
 C   -2.604015277759   -0.606740000885    0.179951173658
 H   -3.661513191027   -0.860886622717    0.177004529232
 H   -1.743403453507   -2.581734215981    0.165249630833
LI   -2.105125087879    0.669738653348   -3.809535801802
