17

 N   -1.618324322722   -1.575277218874    0.187224585486
 C   -0.408136255878   -0.920071015198    0.191186209454
 N    0.825276158425   -1.518748709660    0.203224494359
 C    1.795699358481   -0.628572568049    0.191352037386
 N    1.592622521068    0.733065565465    0.184516877044
 H    2.396449646319    1.353026105220    0.102528854622
 N    3.121154112718   -1.047247289729    0.113004734151
 H    3.775690318050   -0.515444065329    0.680645510881
 H    3.199959200109   -2.047947433664    0.274588072140
 C    0.333348778751    1.419099268996    0.197470663721
 O    0.305768409646    2.647272353773    0.193382535293
 C   -0.739436347225    0.445405879722    0.203671861661
 N   -2.110509648994    0.631736925035    0.203596676945
 C   -2.604033143505   -0.606866089010    0.193266577280
 H   -3.661531056773   -0.861012710842    0.190319932854
 H   -1.743421319253   -2.581860304106    0.178565034455
LI   -2.104740451472    0.672453238237   -4.096206678815
