17

 N   -1.618342188468   -1.575403307000    0.200539989107
 C   -0.408154121624   -0.920197103324    0.204501613075
 N    0.825258292679   -1.518874797786    0.216539897980
 C    1.795681492735   -0.628698656175    0.204667441007
 N    1.592604655322    0.732939477339    0.197832280665
 H    2.396431780573    1.352900017094    0.115844258243
 N    3.121136246972   -1.047373377855    0.126320137772
 H    3.775672452304   -0.515570153455    0.693960914502
 H    3.199941334363   -2.048073521790    0.287903475761
 C    0.333330913005    1.418973180870    0.210786067342
 O    0.305750543900    2.647146265647    0.206697938914
 C   -0.739454212971    0.445279791596    0.216987265282
 N   -2.110527514740    0.631610836909    0.216912080566
 C   -2.604051009251   -0.606992177136    0.206581980901
 H   -3.661548922519   -0.861138798968    0.203635336475
 H   -1.743439184999   -2.581986392232    0.191880438076
LI   -2.104355815065    0.675167823126   -4.382877555828
