17

 N   -1.618360054213   -1.575529395125    0.213855392728
 C   -0.408171987369   -0.920323191449    0.217817016696
 N    0.825240426934   -1.519000885911    0.229855301601
 C    1.795663626990   -0.628824744300    0.217982844628
 N    1.592586789577    0.732813389214    0.211147684286
 H    2.396413914828    1.352773928969    0.129159661864
 N    3.121118381227   -1.047499465980    0.139635541393
 H    3.775654586559   -0.515696241580    0.707276318123
 H    3.199923468618   -2.048199609915    0.301218879382
 C    0.333313047260    1.418847092745    0.224101470963
 O    0.305732678155    2.647020177522    0.220013342535
 C   -0.739472078716    0.445153703471    0.230302668903
 N   -2.110545380485    0.631484748784    0.230227484187
 C   -2.604068874996   -0.607118265261    0.219897384522
 H   -3.661566788264   -0.861264887093    0.216950740096
 H   -1.743457050744   -2.582112480357    0.205195841697
LI   -2.103971178659    0.677882408015   -4.669548432841
