17

 N   -1.618371964711   -1.575613453875    0.222732328476
 C   -0.408183897867   -0.920407250199    0.226693952444
 N    0.825228516436   -1.519084944661    0.238732237349
 C    1.795651716492   -0.628908803050    0.226859780376
 N    1.592574879079    0.732729330464    0.220024620034
 H    2.396402004330    1.352689870219    0.138036597612
 N    3.121106470729   -1.047583524730    0.148512477141
 H    3.775642676061   -0.515780300330    0.716153253871
 H    3.199911558120   -2.048283668665    0.310095815130
 C    0.333301136762    1.418763033995    0.232978406711
 O    0.305720767657    2.646936118772    0.228890278283
 C   -0.739483989214    0.445069644721    0.239179604651
 N   -2.110557290983    0.631400690034    0.239104419935
 C   -2.604080785494   -0.607202324011    0.228774320270
 H   -3.661578698762   -0.861348945843    0.225827675844
 H   -1.743468961242   -2.582196539107    0.214072777445
LI   -2.103714754387    0.679692131274   -4.860662350849
