17

 N   -1.618377919959   -1.575655483250    0.227170796350
 C   -0.408189853115   -0.920449279574    0.231132420318
 N    0.825222561188   -1.519126974036    0.243170705223
 C    1.795645761244   -0.628950832425    0.231298248250
 N    1.592568923831    0.732687301089    0.224463087908
 H    2.396396049082    1.352647840844    0.142475065486
 N    3.121100515481   -1.047625554105    0.152950945015
 H    3.775636720813   -0.515822329705    0.720591721745
 H    3.199905602872   -2.048325698040    0.314534283004
 C    0.333295181514    1.418721004620    0.237416874585
 O    0.305714812409    2.646894089397    0.233328746157
 C   -0.739489944462    0.445027615346    0.243618072525
 N   -2.110563246231    0.631358660659    0.243542887809
 C   -2.604086740742   -0.607244353386    0.233212788144
 H   -3.661584654010   -0.861390975218    0.230266143718
 H   -1.743474916490   -2.582238568482    0.218511245319
LI   -2.103586542252    0.680596992904   -4.956219309854
