17

 N   -1.618419606699   -1.575949688876    0.258240071466
 C   -0.408231539855   -0.920743485200    0.262201695434
 N    0.825180874448   -1.519421179662    0.274239980339
 C    1.795604074504   -0.629245038051    0.262367523366
 N    1.592527237091    0.732393095463    0.255532363024
 H    2.396354362342    1.352353635218    0.173544340602
 N    3.121058828741   -1.047919759731    0.184020220131
 H    3.775595034073   -0.516116535331    0.751660996861
 H    3.199863916132   -2.048619903666    0.345603558120
 C    0.333253494774    1.418426798994    0.268486149701
 O    0.305673125669    2.646599883771    0.264398021273
 C   -0.739531631202    0.444733409720    0.274687347641
 N   -2.110604932971    0.631064455033    0.274612162925
 C   -2.604128427482   -0.607538559012    0.264282063260
 H   -3.661626340750   -0.861685180844    0.261335418834
 H   -1.743516603230   -2.582532774108    0.249580520435
LI   -2.102689057302    0.686931024311   -5.625118022884
