17

 N   -1.618449382942   -1.576159835751    0.280432410835
 C   -0.408261316098   -0.920953632075    0.284394034803
 N    0.825151098205   -1.519631326537    0.296432319708
 C    1.795574298261   -0.629455184926    0.284559862735
 N    1.592497460848    0.732182948588    0.277724702393
 H    2.396324586099    1.352143488343    0.195736679971
 N    3.121029052498   -1.048129906606    0.206212559500
 H    3.775565257830   -0.516326682206    0.773853336230
 H    3.199834139889   -2.048830050541    0.367795897489
 C    0.333223718531    1.418216652119    0.290678489070
 O    0.305643349426    2.646389736896    0.286590360642
 C   -0.739561407445    0.444523262845    0.296879687010
 N   -2.110634709214    0.630854308158    0.296804502294
 C   -2.604158203725   -0.607748705887    0.286474402629
 H   -3.661656116993   -0.861895327719    0.283527758203
 H   -1.743546379473   -2.582742920983    0.271772859804
LI   -2.102047996624    0.691455332459   -6.102902817906
