17

 N   -1.618461293439   -1.576243894502    0.289309346583
 C   -0.408273226595   -0.921037690826    0.293270970551
 N    0.825139187708   -1.519715385288    0.305309255456
 C    1.795562387764   -0.629539243677    0.293436798483
 N    1.592485550351    0.732098889837    0.286601638141
 H    2.396312675602    1.352059429592    0.204613615719
 N    3.121017142001   -1.048213965357    0.215089495248
 H    3.775553347333   -0.516410740957    0.782730271978
 H    3.199822229392   -2.048914109292    0.376672833237
 C    0.333211808034    1.418132593368    0.299555424818
 O    0.305631438929    2.646305678145    0.295467296390
 C   -0.739573317942    0.444439204094    0.305756622758
 N   -2.110646619711    0.630770249407    0.305681438042
 C   -2.604170114222   -0.607832764638    0.295351338377
 H   -3.661668027490   -0.861979386470    0.292404693951
 H   -1.743558289970   -2.582826979734    0.280649795552
LI   -2.101791572353    0.693265055718   -6.294016735914
