17

 N   -1.618467248688   -1.576285923877    0.293747814457
 C   -0.408279181844   -0.921079720201    0.297709438425
 N    0.825133232459   -1.519757414663    0.309747723330
 C    1.795556432515   -0.629581273052    0.297875266357
 N    1.592479595102    0.732056860462    0.291040106015
 H    2.396306720353    1.352017400217    0.209052083593
 N    3.121011186752   -1.048255994732    0.219527963122
 H    3.775547392084   -0.516452770332    0.787168739852
 H    3.199816274143   -2.048956138667    0.381111301111
 C    0.333205852785    1.418090563993    0.303993892692
 O    0.305625483680    2.646263648770    0.299905764264
 C   -0.739579273191    0.444397174719    0.310195090632
 N   -2.110652574960    0.630728220032    0.310119905916
 C   -2.604176069471   -0.607874794013    0.299789806251
 H   -3.661673982739   -0.862021415845    0.296843161825
 H   -1.743564245219   -2.582869009109    0.285088263426
LI   -2.101663360217    0.694169917348   -6.389573694919
