17

 N   -1.618497024931   -1.576496070752    0.315940153826
 C   -0.408308958087   -0.921289867076    0.319901777794
 N    0.825103456216   -1.519967561538    0.331940062699
 C    1.795526656272   -0.629791419927    0.320067605726
 N    1.592449818859    0.731846713587    0.313232445384
 H    2.396276944110    1.351807253342    0.231244422962
 N    3.120981410509   -1.048466141607    0.241720302491
 H    3.775517615841   -0.516662917207    0.809361079221
 H    3.199786497900   -2.049166285542    0.403303640480
 C    0.333176076542    1.417880417118    0.326186232061
 O    0.305595707437    2.646053501895    0.322098103633
 C   -0.739609049434    0.444187027844    0.332387430001
 N   -2.110682351203    0.630518073157    0.332312245285
 C   -2.604205845714   -0.608084940888    0.321982145620
 H   -3.661703758982   -0.862231562720    0.319035501194
 H   -1.743594021462   -2.583079155984    0.307280602795
LI   -2.101022299539    0.698694225496   -6.867358489940
