17

 N   -1.618502980180   -1.576538100127    0.320378621699
 C   -0.408314913336   -0.921331896451    0.324340245667
 N    0.825097500967   -1.520009590913    0.336378530572
 C    1.795520701023   -0.629833449302    0.324506073599
 N    1.592443863610    0.731804684212    0.317670913257
 H    2.396270988861    1.351765223967    0.235682890835
 N    3.120975455260   -1.048508170982    0.246158770364
 H    3.775511660592   -0.516704946582    0.813799547094
 H    3.199780542651   -2.049208314917    0.407742108353
 C    0.333170121293    1.417838387743    0.330624699934
 O    0.305589752188    2.646011472520    0.326536571506
 C   -0.739615004683    0.444144998469    0.336825897874
 N   -2.110688306452    0.630476043782    0.336750713158
 C   -2.604211800963   -0.608126970263    0.326420613493
 H   -3.661709714231   -0.862273592095    0.323473969067
 H   -1.743599976711   -2.583121185359    0.311719070668
LI   -2.100894087403    0.699599087125   -6.962915448945
