17

 N   -1.618508935428   -1.576580129502    0.324817089573
 C   -0.408320868584   -0.921373925826    0.328778713541
 N    0.825091545719   -1.520051620288    0.340816998446
 C    1.795514745775   -0.629875478677    0.328944541473
 N    1.592437908362    0.731762654837    0.322109381131
 H    2.396265033613    1.351723194592    0.240121358709
 N    3.120969500012   -1.048550200357    0.250597238238
 H    3.775505705344   -0.516746975957    0.818238014968
 H    3.199774587403   -2.049250344292    0.412180576227
 C    0.333164166045    1.417796358368    0.335063167808
 O    0.305583796940    2.645969443145    0.330975039380
 C   -0.739620959931    0.444102969094    0.341264365748
 N   -2.110694261700    0.630434014407    0.341189181032
 C   -2.604217756211   -0.608168999638    0.330859081367
 H   -3.661715669479   -0.862315621470    0.327912436941
 H   -1.743605931959   -2.583163214734    0.316157538542
LI   -2.100765875268    0.700503948755   -7.058472407949
