17

 N   -1.618544666920   -1.576832305753    0.351447896816
 C   -0.408356600076   -0.921626102077    0.355409520784
 N    0.825055814227   -1.520303796539    0.367447805689
 C    1.795479014283   -0.630127654928    0.355575348716
 N    1.592402176870    0.731510478586    0.348740188374
 H    2.396229302121    1.351471018341    0.266752165952
 N    3.120933768520   -1.048802376608    0.277228045481
 H    3.775469973852   -0.516999152208    0.844868822211
 H    3.199738855911   -2.049502520543    0.438811383470
 C    0.333128434553    1.417544182117    0.361693975051
 O    0.305548065448    2.645717266894    0.357605846623
 C   -0.739656691423    0.443850792843    0.367895172991
 N   -2.110729993192    0.630181838156    0.367819988275
 C   -2.604253487703   -0.608421175889    0.357489888610
 H   -3.661751400971   -0.862567797721    0.354543244184
 H   -1.743641663451   -2.583415390985    0.342788345785
LI   -2.099996602454    0.705933118533   -7.631814161975
