17

 N   -1.618574443163   -1.577042452629    0.373640236185
 C   -0.408386376319   -0.921836248953    0.377601860153
 N    0.825026037984   -1.520513943415    0.389640145058
 C    1.795449238040   -0.630337801804    0.377767688085
 N    1.592372400627    0.731300331710    0.370932527743
 H    2.396199525878    1.351260871465    0.288944505321
 N    3.120903992277   -1.049012523484    0.299420384850
 H    3.775440197609   -0.517209299084    0.867061161580
 H    3.199709079668   -2.049712667419    0.461003722839
 C    0.333098658310    1.417334035241    0.383886314420
 O    0.305518289205    2.645507120018    0.379798185992
 C   -0.739686467666    0.443640645967    0.390087512360
 N   -2.110759769435    0.629971691280    0.390012327644
 C   -2.604283263946   -0.608631322765    0.379682227979
 H   -3.661781177214   -0.862777944597    0.376735583553
 H   -1.743671439694   -2.583625537861    0.364980685154
LI   -2.099355541776    0.710457426681   -8.109598956997
