17

 N   -1.618580398411   -1.577084482004    0.378078704059
 C   -0.408392331567   -0.921878278328    0.382040328027
 N    0.825020082736   -1.520555972790    0.394078612932
 C    1.795443282792   -0.630379831179    0.382206155959
 N    1.592366445379    0.731258302335    0.375370995617
 H    2.396193570630    1.351218842090    0.293382973195
 N    3.120898037029   -1.049054552859    0.303858852724
 H    3.775434242361   -0.517251328459    0.871499629454
 H    3.199703124420   -2.049754696794    0.465442190713
 C    0.333092703062    1.417292005866    0.388324782294
 O    0.305512333957    2.645465090643    0.384236653866
 C   -0.739692422914    0.443598616592    0.394525980234
 N   -2.110765724683    0.629929661905    0.394450795518
 C   -2.604289219194   -0.608673352140    0.384120695853
 H   -3.661787132462   -0.862819973972    0.381174051427
 H   -1.743677394942   -2.583667567236    0.369419153028
LI   -2.099227329640    0.711362288310   -8.205155916001
