17

 N   -1.618592308908   -1.577168540754    0.386955639806
 C   -0.408404242064   -0.921962337078    0.390917263774
 N    0.825008172239   -1.520640031540    0.402955548679
 C    1.795431372295   -0.630463889929    0.391083091706
 N    1.592354534882    0.731174243585    0.384247931364
 H    2.396181660133    1.351134783340    0.302259908942
 N    3.120886126532   -1.049138611609    0.312735788471
 H    3.775422331864   -0.517335387209    0.880376565201
 H    3.199691213923   -2.049838755544    0.474319126460
 C    0.333080792565    1.417207947116    0.397201718041
 O    0.305500423460    2.645381031893    0.393113589613
 C   -0.739704333411    0.443514557842    0.403402915981
 N   -2.110777635180    0.629845603155    0.403327731265
 C   -2.604301129691   -0.608757410890    0.392997631600
 H   -3.661799042959   -0.862904032722    0.390050987174
 H   -1.743689305439   -2.583751625986    0.378296088775
LI   -2.098970905369    0.713172011570   -8.396269834010
