17

 N   -1.618598264157   -1.577210570129    0.391394107680
 C   -0.408410197313   -0.922004366453    0.395355731648
 N    0.825002216990   -1.520682060915    0.407394016553
 C    1.795425417046   -0.630505919304    0.395521559580
 N    1.592348579633    0.731132214210    0.388686399238
 H    2.396175704884    1.351092753965    0.306698376816
 N    3.120880171283   -1.049180640984    0.317174256345
 H    3.775416376615   -0.517377416584    0.884815033075
 H    3.199685258674   -2.049880784919    0.478757594334
 C    0.333074837316    1.417165917741    0.401640185915
 O    0.305494468211    2.645339002518    0.397552057487
 C   -0.739710288660    0.443472528467    0.407841383855
 N   -2.110783590429    0.629803573780    0.407766199139
 C   -2.604307084940   -0.608799440265    0.397436099474
 H   -3.661804998208   -0.862946062097    0.394489455048
 H   -1.743695260688   -2.583793655361    0.382734556649
LI   -2.098842693233    0.714076873199   -8.491826793014
