17

 N   -1.618633995648   -1.577462746380    0.418024914923
 C   -0.408445928804   -0.922256542704    0.421986538891
 N    0.824966485499   -1.520934237166    0.434024823796
 C    1.795389685555   -0.630758095555    0.422152366823
 N    1.592312848142    0.730880037959    0.415317206481
 H    2.396139973393    1.350840577714    0.333329184059
 N    3.120844439792   -1.049432817235    0.343805063588
 H    3.775380645124   -0.517629592835    0.911445840318
 H    3.199649527183   -2.050132961170    0.505388401577
 C    0.333039105825    1.416913741490    0.428270993158
 O    0.305458736720    2.645086826267    0.424182864730
 C   -0.739746020151    0.443220352216    0.434472191098
 N   -2.110819321920    0.629551397529    0.434397006382
 C   -2.604342816431   -0.609051616516    0.424066906717
 H   -3.661840729699   -0.863198238348    0.421120262291
 H   -1.743730992179   -2.584045831612    0.409365363892
LI   -2.098073420419    0.719506042977   -9.065168547040
