17

 N   -1.618639950897   -1.577504775755    0.422463382797
 C   -0.408451884053   -0.922298572079    0.426425006765
 N    0.824960530250   -1.520976266541    0.438463291670
 C    1.795383730306   -0.630800124930    0.426590834697
 N    1.592306892893    0.730838008584    0.419755674355
 H    2.396134018144    1.350798548339    0.337767651933
 N    3.120838484543   -1.049474846610    0.348243531462
 H    3.775374689875   -0.517671622210    0.915884308192
 H    3.199643571934   -2.050174990545    0.509826869451
 C    0.333033150576    1.416871712115    0.432709461032
 O    0.305452781471    2.645044796892    0.428621332604
 C   -0.739751975400    0.443178322841    0.438910658972
 N   -2.110825277169    0.629509368154    0.438835474256
 C   -2.604348771680   -0.609093645891    0.428505374591
 H   -3.661846684948   -0.863240267723    0.425558730165
 H   -1.743736947428   -2.584087860987    0.413803831766
LI   -2.097945208284    0.720410904607   -9.160725506044
