17

 N   -1.618651861394   -1.577588834505    0.431340318544
 C   -0.408463794550   -0.922382630829    0.435301942512
 N    0.824948619753   -1.521060325291    0.447340227417
 C    1.795371819809   -0.630884183680    0.435467770444
 N    1.592294982396    0.730753949834    0.428632610102
 H    2.396122107647    1.350714489589    0.346644587680
 N    3.120826574046   -1.049558905360    0.357120467209
 H    3.775362779378   -0.517755680960    0.924761243939
 H    3.199631661437   -2.050259049295    0.518703805198
 C    0.333021240079    1.416787653365    0.441586396779
 O    0.305440870974    2.644960738142    0.437498268351
 C   -0.739763885897    0.443094264091    0.447787594719
 N   -2.110837187666    0.629425309404    0.447712410003
 C   -2.604360682177   -0.609177704641    0.437382310338
 H   -3.661858595445   -0.863324326473    0.434435665912
 H   -1.743748857925   -2.584171919737    0.422680767513
LI   -2.097688784012    0.722220627866   -9.351839424053
