13

 C   -2.727377556269   -0.255637301371    0.000000000000
 H   -3.822895556269   -0.255637301371    0.000000000000
 C   -1.995910556269    0.954344698629    0.000000000000
 H   -2.533793556269    1.912963698629    0.000000000000
 C   -1.995910556269   -1.465620301371    0.000000000000
 H   -2.533792556269   -2.424239301371    0.000000000000
 C   -0.590740556269    0.959459698629    0.000000000000
 H   -0.044110556269    1.911617698629    0.000000000000
 C   -0.590740556269   -1.470734301371    0.000000000000
 H   -0.044110556269   -2.422891301371    0.000000000000
 C    0.204296443731   -0.255637301371    0.000000000000
 O    1.490643443731   -0.255637301371    0.000000000000
 K    1.990643443731    0.610388102413    0.000000000000
