13

 C   -2.771655251443   -0.332328519056    0.000000000000
 H   -3.867173251443   -0.332328519056    0.000000000000
 C   -2.040188251443    0.877653480944    0.000000000000
 H   -2.578071251443    1.836272480944    0.000000000000
 C   -2.040188251443   -1.542311519056    0.000000000000
 H   -2.578070251443   -2.500930519056    0.000000000000
 C   -0.635018251443    0.882768480944    0.000000000000
 H   -0.088388251443    1.834926480944    0.000000000000
 C   -0.635018251443   -1.547425519056    0.000000000000
 H   -0.088388251443   -2.499582519056    0.000000000000
 C    0.160018748557   -0.332328519056    0.000000000000
 O    1.446365748557   -0.332328519056    0.000000000000
 K    2.096365748557    0.793504505864    0.000000000000
