13

 C   -2.801173714893   -0.383455997512    0.000000000000
 H   -3.896691714893   -0.383455997512    0.000000000000
 C   -2.069706714893    0.826526002488    0.000000000000
 H   -2.607589714893    1.785145002488    0.000000000000
 C   -2.069706714893   -1.593438997512    0.000000000000
 H   -2.607588714893   -2.552057997512    0.000000000000
 C   -0.664536714893    0.831641002488    0.000000000000
 H   -0.117906714893    1.783799002488    0.000000000000
 C   -0.664536714893   -1.598552997512    0.000000000000
 H   -0.117906714893   -2.550709997512    0.000000000000
 C    0.130500285107   -0.383455997512    0.000000000000
 O    1.416847285107   -0.383455997512    0.000000000000
 K    2.166847285107    0.915582108164    0.000000000000
