13

 C   -2.860210641793   -0.485710954425    0.000000000000
 H   -3.955728641793   -0.485710954425    0.000000000000
 C   -2.128743641793    0.724271045575    0.000000000000
 H   -2.666626641793    1.682890045575    0.000000000000
 C   -2.128743641793   -1.695693954425    0.000000000000
 H   -2.666625641793   -2.654312954425    0.000000000000
 C   -0.723573641793    0.729386045575    0.000000000000
 H   -0.176943641793    1.681544045575    0.000000000000
 C   -0.723573641793   -1.700807954425    0.000000000000
 H   -0.176943641793   -2.652964954425    0.000000000000
 C    0.071463358207   -0.485710954425    0.000000000000
 O    1.357810358207   -0.485710954425    0.000000000000
 K    2.307810358207    1.159737312765    0.000000000000
