13

 C   -2.904488336967   -0.562402172110    0.000000000000
 H   -4.000006336967   -0.562402172110    0.000000000000
 C   -2.173021336967    0.647579827890    0.000000000000
 H   -2.710904336967    1.606198827890    0.000000000000
 C   -2.173021336967   -1.772385172110    0.000000000000
 H   -2.710903336967   -2.731004172110    0.000000000000
 C   -0.767851336967    0.652694827890    0.000000000000
 H   -0.221221336967    1.604852827890    0.000000000000
 C   -0.767851336967   -1.777499172110    0.000000000000
 H   -0.221221336967   -2.729656172110    0.000000000000
 C    0.027185663033   -0.562402172110    0.000000000000
 O    1.313532663033   -0.562402172110    0.000000000000
 K    2.413532663033    1.342853716216    0.000000000000
