13

 C   -2.919247568692   -0.587965911338    0.000000000000
 H   -4.014765568692   -0.587965911338    0.000000000000
 C   -2.187780568692    0.622016088662    0.000000000000
 H   -2.725663568692    1.580635088662    0.000000000000
 C   -2.187780568692   -1.797948911338    0.000000000000
 H   -2.725662568692   -2.756567911338    0.000000000000
 C   -0.782610568692    0.627131088662    0.000000000000
 H   -0.235980568692    1.579289088662    0.000000000000
 C   -0.782610568692   -1.803062911338    0.000000000000
 H   -0.235980568692   -2.755219911338    0.000000000000
 C    0.012426431308   -0.587965911338    0.000000000000
 O    1.298773431308   -0.587965911338    0.000000000000
 K    2.448773431308    1.403892517366    0.000000000000
