13

 C   -2.948766032142   -0.639093389794    0.000000000000
 H   -4.044284032142   -0.639093389794    0.000000000000
 C   -2.217299032142    0.570888610206    0.000000000000
 H   -2.755182032142    1.529507610206    0.000000000000
 C   -2.217299032142   -1.849076389794    0.000000000000
 H   -2.755181032142   -2.807695389794    0.000000000000
 C   -0.812129032142    0.576003610206    0.000000000000
 H   -0.265499032142    1.528161610206    0.000000000000
 C   -0.812129032142   -1.854190389794    0.000000000000
 H   -0.265499032142   -2.806347389794    0.000000000000
 C   -0.017092032142   -0.639093389794    0.000000000000
 O    1.269254967858   -0.639093389794    0.000000000000
 K    2.519254967858    1.525970119667    0.000000000000
