13

 C   -2.963525263867   -0.664657129022    0.000000000000
 H   -4.059043263867   -0.664657129022    0.000000000000
 C   -2.232058263867    0.545324870978    0.000000000000
 H   -2.769941263867    1.503943870978    0.000000000000
 C   -2.232058263867   -1.874640129022    0.000000000000
 H   -2.769940263867   -2.833259129022    0.000000000000
 C   -0.826888263867    0.550439870978    0.000000000000
 H   -0.280258263867    1.502597870978    0.000000000000
 C   -0.826888263867   -1.879754129022    0.000000000000
 H   -0.280258263867   -2.831911129022    0.000000000000
 C   -0.031851263867   -0.664657129022    0.000000000000
 O    1.254495736133   -0.664657129022    0.000000000000
 K    2.554495736133    1.587008920817    0.000000000000
