13

 C   -3.007802959042   -0.741348346707    0.000000000000
 H   -4.103320959042   -0.741348346707    0.000000000000
 C   -2.276335959042    0.468633653293    0.000000000000
 H   -2.814218959042    1.427252653293    0.000000000000
 C   -2.276335959042   -1.951331346707    0.000000000000
 H   -2.814217959042   -2.909950346707    0.000000000000
 C   -0.871165959042    0.473748653293    0.000000000000
 H   -0.324535959042    1.425906653293    0.000000000000
 C   -0.871165959042   -1.956445346707    0.000000000000
 H   -0.324535959042   -2.908602346707    0.000000000000
 C   -0.076128959042   -0.741348346707    0.000000000000
 O    1.210218040958   -0.741348346707    0.000000000000
 K    2.660218040958    1.770125324268    0.000000000000
