13

 C   -3.037321422491   -0.792475825163    0.000000000000
 H   -4.132839422491   -0.792475825163    0.000000000000
 C   -2.305854422491    0.417506174837    0.000000000000
 H   -2.843737422491    1.376125174837    0.000000000000
 C   -2.305854422491   -2.002458825163    0.000000000000
 H   -2.843736422491   -2.961077825163    0.000000000000
 C   -0.900684422491    0.422621174837    0.000000000000
 H   -0.354054422491    1.374779174837    0.000000000000
 C   -0.900684422491   -2.007572825163    0.000000000000
 H   -0.354054422491   -2.959729825163    0.000000000000
 C   -0.105647422491   -0.792475825163    0.000000000000
 O    1.180699577509   -0.792475825163    0.000000000000
 K    2.730699577509    1.892202926568    0.000000000000
