13

 C   -3.066839885941   -0.843603303620    0.000000000000
 H   -4.162357885941   -0.843603303620    0.000000000000
 C   -2.335372885941    0.366378696380    0.000000000000
 H   -2.873255885941    1.324997696380    0.000000000000
 C   -2.335372885941   -2.053586303620    0.000000000000
 H   -2.873254885941   -3.012205303620    0.000000000000
 C   -0.930202885941    0.371493696380    0.000000000000
 H   -0.383572885941    1.323651696380    0.000000000000
 C   -0.930202885941   -2.058700303620    0.000000000000
 H   -0.383572885941   -3.010857303620    0.000000000000
 C   -0.135165885941   -0.843603303620    0.000000000000
 O    1.151181114059   -0.843603303620    0.000000000000
 K    2.801181114059    2.014280528869    0.000000000000
