13

 C   -3.111117581116   -0.920294521304    0.000000000000
 H   -4.206635581116   -0.920294521304    0.000000000000
 C   -2.379650581116    0.289687478696    0.000000000000
 H   -2.917533581116    1.248306478696    0.000000000000
 C   -2.379650581116   -2.130277521304    0.000000000000
 H   -2.917532581116   -3.088896521304    0.000000000000
 C   -0.974480581116    0.294802478696    0.000000000000
 H   -0.427850581116    1.246960478696    0.000000000000
 C   -0.974480581116   -2.135391521304    0.000000000000
 H   -0.427850581116   -3.087548521304    0.000000000000
 C   -0.179443581116   -0.920294521304    0.000000000000
 O    1.106903418884   -0.920294521304    0.000000000000
 K    2.906903418884    2.197396932320    0.000000000000
