13

 C   -3.155395276291   -0.996985738989    0.000000000000
 H   -4.250913276291   -0.996985738989    0.000000000000
 C   -2.423928276291    0.212996261011    0.000000000000
 H   -2.961811276291    1.171615261011    0.000000000000
 C   -2.423928276291   -2.206968738989    0.000000000000
 H   -2.961810276291   -3.165587738989    0.000000000000
 C   -1.018758276291    0.218111261011    0.000000000000
 H   -0.472128276291    1.170269261011    0.000000000000
 C   -1.018758276291   -2.212082738989    0.000000000000
 H   -0.472128276291   -3.164239738989    0.000000000000
 C   -0.223721276291   -0.996985738989    0.000000000000
 O    1.062625723709   -0.996985738989    0.000000000000
 K    3.012625723709    2.380513335770    0.000000000000
