13

 C   -3.214432203190   -1.099240695902    0.000000000000
 H   -4.309950203190   -1.099240695902    0.000000000000
 C   -2.482965203190    0.110741304098    0.000000000000
 H   -3.020848203190    1.069360304098    0.000000000000
 C   -2.482965203190   -2.309223695902    0.000000000000
 H   -3.020847203190   -3.267842695902    0.000000000000
 C   -1.077795203190    0.115856304098    0.000000000000
 H   -0.531165203190    1.068014304098    0.000000000000
 C   -1.077795203190   -2.314337695902    0.000000000000
 H   -0.531165203190   -3.266494695902    0.000000000000
 C   -0.282758203190   -1.099240695902    0.000000000000
 O    1.003588796810   -1.099240695902    0.000000000000
 K    3.153588796810    2.624668540371    0.000000000000
