13

 C   -3.229191434915   -1.124804435130    0.000000000000
 H   -4.324709434915   -1.124804435130    0.000000000000
 C   -2.497724434915    0.085177564870    0.000000000000
 H   -3.035607434915    1.043796564870    0.000000000000
 C   -2.497724434915   -2.334787435130    0.000000000000
 H   -3.035606434915   -3.293406435130    0.000000000000
 C   -1.092554434915    0.090292564870    0.000000000000
 H   -0.545924434915    1.042450564870    0.000000000000
 C   -1.092554434915   -2.339901435130    0.000000000000
 H   -0.545924434915   -3.292058435130    0.000000000000
 C   -0.297517434915   -1.124804435130    0.000000000000
 O    0.988829565085   -1.124804435130    0.000000000000
 K    3.188829565085    2.685707341522    0.000000000000
