13

 C   -3.302987593539   -1.252623131271    0.000000000000
 H   -4.398505593539   -1.252623131271    0.000000000000
 C   -2.571520593539   -0.042641131271    0.000000000000
 H   -3.109403593539    0.915977868729    0.000000000000
 C   -2.571520593539   -2.462606131271    0.000000000000
 H   -3.109402593539   -3.421225131271    0.000000000000
 C   -1.166350593539   -0.037526131271    0.000000000000
 H   -0.619720593539    0.914631868729    0.000000000000
 C   -1.166350593539   -2.467720131271    0.000000000000
 H   -0.619720593539   -3.419877131271    0.000000000000
 C   -0.371313593539   -1.252623131271    0.000000000000
 O    0.915033406461   -1.252623131271    0.000000000000
 K    3.365033406461    2.990901347273    0.000000000000
