13

 C   -3.332506056989   -1.303750609727    0.000000000000
 H   -4.428024056989   -1.303750609727    0.000000000000
 C   -2.601039056989   -0.093768609727    0.000000000000
 H   -3.138922056989    0.864850390273    0.000000000000
 C   -2.601039056989   -2.513733609727    0.000000000000
 H   -3.138921056989   -3.472352609727    0.000000000000
 C   -1.195869056989   -0.088653609727    0.000000000000
 H   -0.649239056989    0.863504390273    0.000000000000
 C   -1.195869056989   -2.518847609727    0.000000000000
 H   -0.649239056989   -3.471004609727    0.000000000000
 C   -0.400832056989   -1.303750609727    0.000000000000
 O    0.885514943011   -1.303750609727    0.000000000000
 K    3.435514943011    3.112978949573    0.000000000000
