13

 C   -3.376783752164   -1.380441827412    0.000000000000
 H   -4.472301752164   -1.380441827412    0.000000000000
 C   -2.645316752164   -0.170459827412    0.000000000000
 H   -3.183199752164    0.788159172588    0.000000000000
 C   -2.645316752164   -2.590424827412    0.000000000000
 H   -3.183198752164   -3.549043827412    0.000000000000
 C   -1.240146752164   -0.165344827412    0.000000000000
 H   -0.693516752164    0.786813172588    0.000000000000
 C   -1.240146752164   -2.595538827412    0.000000000000
 H   -0.693516752164   -3.547695827412    0.000000000000
 C   -0.445109752164   -1.380441827412    0.000000000000
 O    0.841237247836   -1.380441827412    0.000000000000
 K    3.541237247836    3.296095353024    0.000000000000
