13

 C   -3.391542983889   -1.406005566640    0.000000000000
 H   -4.487060983889   -1.406005566640    0.000000000000
 C   -2.660075983889   -0.196023566640    0.000000000000
 H   -3.197958983889    0.762595433360    0.000000000000
 C   -2.660075983889   -2.615988566640    0.000000000000
 H   -3.197957983889   -3.574607566640    0.000000000000
 C   -1.254905983889   -0.190908566640    0.000000000000
 H   -0.708275983889    0.761249433360    0.000000000000
 C   -1.254905983889   -2.621102566640    0.000000000000
 H   -0.708275983889   -3.573259566640    0.000000000000
 C   -0.459868983889   -1.406005566640    0.000000000000
 O    0.826478016111   -1.406005566640    0.000000000000
 K    3.576478016111    3.357134154174    0.000000000000
