13

 C   -3.450579910788   -1.508260523553    0.000000000000
 H   -4.546097910788   -1.508260523553    0.000000000000
 C   -2.719112910788   -0.298278523553    0.000000000000
 H   -3.256995910788    0.660340476447    0.000000000000
 C   -2.719112910788   -2.718243523553    0.000000000000
 H   -3.256994910788   -3.676862523553    0.000000000000
 C   -1.313942910788   -0.293163523553    0.000000000000
 H   -0.767312910788    0.658994476447    0.000000000000
 C   -1.313942910788   -2.723357523553    0.000000000000
 H   -0.767312910788   -3.675514523553    0.000000000000
 C   -0.518905910788   -1.508260523553    0.000000000000
 O    0.767441089212   -1.508260523553    0.000000000000
 K    3.717441089212    3.601289358775    0.000000000000
