13

 C   -3.539135301138   -1.661642958922    0.000000000000
 H   -4.634653301138   -1.661642958922    0.000000000000
 C   -2.807668301138   -0.451660958922    0.000000000000
 H   -3.345551301138    0.506958041078    0.000000000000
 C   -2.807668301138   -2.871625958922    0.000000000000
 H   -3.345550301138   -3.830244958922    0.000000000000
 C   -1.402498301138   -0.446545958922    0.000000000000
 H   -0.855868301138    0.505612041078    0.000000000000
 C   -1.402498301138   -2.876739958922    0.000000000000
 H   -0.855868301138   -3.828896958922    0.000000000000
 C   -0.607461301138   -1.661642958922    0.000000000000
 O    0.678885698862   -1.661642958922    0.000000000000
 K    3.928885698862    3.967522165677    0.000000000000
