13

 C   -3.553894532863   -1.687206698150    0.000000000000
 H   -4.649412532863   -1.687206698150    0.000000000000
 C   -2.822427532863   -0.477224698150    0.000000000000
 H   -3.360310532863    0.481394301850    0.000000000000
 C   -2.822427532863   -2.897189698150    0.000000000000
 H   -3.360309532863   -3.855808698150    0.000000000000
 C   -1.417257532863   -0.472109698150    0.000000000000
 H   -0.870627532863    0.480048301850    0.000000000000
 C   -1.417257532863   -2.902303698150    0.000000000000
 H   -0.870627532863   -3.854460698150    0.000000000000
 C   -0.622220532863   -1.687206698150    0.000000000000
 O    0.664126467137   -1.687206698150    0.000000000000
 K    3.964126467137    4.028560966827    0.000000000000
