13

 C   -3.568653764587   -1.712770437379    0.000000000000
 H   -4.664171764587   -1.712770437379    0.000000000000
 C   -2.837186764587   -0.502788437379    0.000000000000
 H   -3.375069764587    0.455830562621    0.000000000000
 C   -2.837186764587   -2.922753437379    0.000000000000
 H   -3.375068764587   -3.881372437379    0.000000000000
 C   -1.432016764587   -0.497673437379    0.000000000000
 H   -0.885386764587    0.454484562621    0.000000000000
 C   -1.432016764587   -2.927867437379    0.000000000000
 H   -0.885386764587   -3.880024437379    0.000000000000
 C   -0.636979764587   -1.712770437379    0.000000000000
 O    0.649367235413   -1.712770437379    0.000000000000
 K    3.999367235413    4.089599767977    0.000000000000
