13

 C   -3.583412996312   -1.738334176607    0.000000000000
 H   -4.678930996312   -1.738334176607    0.000000000000
 C   -2.851945996312   -0.528352176607    0.000000000000
 H   -3.389828996312    0.430266823393    0.000000000000
 C   -2.851945996312   -2.948317176607    0.000000000000
 H   -3.389827996312   -3.906936176607    0.000000000000
 C   -1.446775996312   -0.523237176607    0.000000000000
 H   -0.900145996312    0.428920823393    0.000000000000
 C   -1.446775996312   -2.953431176607    0.000000000000
 H   -0.900145996312   -3.905588176607    0.000000000000
 C   -0.651738996312   -1.738334176607    0.000000000000
 O    0.634608003688   -1.738334176607    0.000000000000
 K    4.034608003688    4.150638569127    0.000000000000
