13

 C   -3.657209154937   -1.866152872748    0.000000000000
 H   -4.752727154937   -1.866152872748    0.000000000000
 C   -2.925742154937   -0.656170872748    0.000000000000
 H   -3.463625154937    0.302448127252    0.000000000000
 C   -2.925742154937   -3.076135872748    0.000000000000
 H   -3.463624154937   -4.034754872748    0.000000000000
 C   -1.520572154937   -0.651055872748    0.000000000000
 H   -0.973942154937    0.301102127252    0.000000000000
 C   -1.520572154937   -3.081249872748    0.000000000000
 H   -0.973942154937   -4.033406872748    0.000000000000
 C   -0.725535154937   -1.866152872748    0.000000000000
 O    0.560811845063   -1.866152872748    0.000000000000
 K    4.210811845063    4.455832574879    0.000000000000
