13

 C   -3.686727618387   -1.917280351204    0.000000000000
 H   -4.782245618387   -1.917280351204    0.000000000000
 C   -2.955260618387   -0.707298351204    0.000000000000
 H   -3.493143618387    0.251320648796    0.000000000000
 C   -2.955260618387   -3.127263351204    0.000000000000
 H   -3.493142618387   -4.085882351204    0.000000000000
 C   -1.550090618387   -0.702183351204    0.000000000000
 H   -1.003460618387    0.249974648796    0.000000000000
 C   -1.550090618387   -3.132377351204    0.000000000000
 H   -1.003460618387   -4.084534351204    0.000000000000
 C   -0.755053618387   -1.917280351204    0.000000000000
 O    0.531293381613   -1.917280351204    0.000000000000
 K    4.281293381613    4.577910177179    0.000000000000
