13

 C   -3.701486850112   -1.942844090432    0.000000000000
 H   -4.797004850112   -1.942844090432    0.000000000000
 C   -2.970019850112   -0.732862090432    0.000000000000
 H   -3.507902850112    0.225756909568    0.000000000000
 C   -2.970019850112   -3.152827090432    0.000000000000
 H   -3.507901850112   -4.111446090432    0.000000000000
 C   -1.564849850112   -0.727747090432    0.000000000000
 H   -1.018219850112    0.224410909568    0.000000000000
 C   -1.564849850112   -3.157941090432    0.000000000000
 H   -1.018219850112   -4.110098090432    0.000000000000
 C   -0.769812850112   -1.942844090432    0.000000000000
 O    0.516534149888   -1.942844090432    0.000000000000
 K    4.316534149888    4.638948978329    0.000000000000
