13

 C   -3.716246081836   -1.968407829660    0.000000000000
 H   -4.811764081836   -1.968407829660    0.000000000000
 C   -2.984779081836   -0.758425829660    0.000000000000
 H   -3.522662081836    0.200193170340    0.000000000000
 C   -2.984779081836   -3.178390829660    0.000000000000
 H   -3.522661081836   -4.137009829660    0.000000000000
 C   -1.579609081836   -0.753310829660    0.000000000000
 H   -1.032979081836    0.198847170340    0.000000000000
 C   -1.579609081836   -3.183504829660    0.000000000000
 H   -1.032979081836   -4.135661829660    0.000000000000
 C   -0.784572081836   -1.968407829660    0.000000000000
 O    0.501774918164   -1.968407829660    0.000000000000
 K    4.351774918164    4.699987779480    0.000000000000
