13

 C   -3.775283008736   -2.070662786573    0.000000000000
 H   -4.870801008736   -2.070662786573    0.000000000000
 C   -3.043816008736   -0.860680786573    0.000000000000
 H   -3.581699008736    0.097938213427    0.000000000000
 C   -3.043816008736   -3.280645786573    0.000000000000
 H   -3.581698008736   -4.239264786573    0.000000000000
 C   -1.638646008736   -0.855565786573    0.000000000000
 H   -1.092016008736    0.096592213427    0.000000000000
 C   -1.638646008736   -3.285759786573    0.000000000000
 H   -1.092016008736   -4.237916786573    0.000000000000
 C   -0.843609008736   -2.070662786573    0.000000000000
 O    0.442737991264   -2.070662786573    0.000000000000
 K    4.492737991264    4.944142984081    0.000000000000
