13

 C   -3.790042240461   -2.096226525801    0.000000000000
 H   -4.885560240461   -2.096226525801    0.000000000000
 C   -3.058575240461   -0.886244525801    0.000000000000
 H   -3.596458240461    0.072374474199    0.000000000000
 C   -3.058575240461   -3.306209525801    0.000000000000
 H   -3.596457240461   -4.264828525801    0.000000000000
 C   -1.653405240461   -0.881129525801    0.000000000000
 H   -1.106775240461    0.071028474199    0.000000000000
 C   -1.653405240461   -3.311323525801    0.000000000000
 H   -1.106775240461   -4.263480525801    0.000000000000
 C   -0.858368240461   -2.096226525801    0.000000000000
 O    0.427978759539   -2.096226525801    0.000000000000
 K    4.527978759539    5.005181785231    0.000000000000
