13

 C   -3.819560703911   -2.147354004258    0.000000000000
 H   -4.915078703911   -2.147354004258    0.000000000000
 C   -3.088093703911   -0.937372004258    0.000000000000
 H   -3.625976703911    0.021246995742    0.000000000000
 C   -3.088093703911   -3.357337004258    0.000000000000
 H   -3.625975703911   -4.315956004258    0.000000000000
 C   -1.682923703911   -0.932257004258    0.000000000000
 H   -1.136293703911    0.019900995742    0.000000000000
 C   -1.682923703911   -3.362451004258    0.000000000000
 H   -1.136293703911   -4.314608004258    0.000000000000
 C   -0.887886703911   -2.147354004258    0.000000000000
 O    0.398460296089   -2.147354004258    0.000000000000
 K    4.598460296089    5.127259387531    0.000000000000
