13

 C   -3.863838399085   -2.224045221942    0.000000000000
 H   -4.959356399085   -2.224045221942    0.000000000000
 C   -3.132371399085   -1.014063221942    0.000000000000
 H   -3.670254399085   -0.055444221942    0.000000000000
 C   -3.132371399085   -3.434028221942    0.000000000000
 H   -3.670253399085   -4.392647221942    0.000000000000
 C   -1.727201399085   -1.008948221942    0.000000000000
 H   -1.180571399085   -0.056790221942    0.000000000000
 C   -1.727201399085   -3.439142221942    0.000000000000
 H   -1.180571399085   -4.391299221942    0.000000000000
 C   -0.932164399085   -2.224045221942    0.000000000000
 O    0.354182600915   -2.224045221942    0.000000000000
 K    4.704182600915    5.310375790982    0.000000000000
