13

 C   -3.893356862535   -2.275172700399    0.000000000000
 H   -4.988874862535   -2.275172700399    0.000000000000
 C   -3.161889862535   -1.065190700399    0.000000000000
 H   -3.699772862535   -0.106571700399    0.000000000000
 C   -3.161889862535   -3.485155700399    0.000000000000
 H   -3.699771862535   -4.443774700399    0.000000000000
 C   -1.756719862535   -1.060075700399    0.000000000000
 H   -1.210089862535   -0.107917700399    0.000000000000
 C   -1.756719862535   -3.490269700399    0.000000000000
 H   -1.210089862535   -4.442426700399    0.000000000000
 C   -0.961682862535   -2.275172700399    0.000000000000
 O    0.324664137465   -2.275172700399    0.000000000000
 K    4.774664137465    5.432453393283    0.000000000000
