13

 C   -3.908116094260   -2.300736439627    0.000000000000
 H   -5.003634094260   -2.300736439627    0.000000000000
 C   -3.176649094260   -1.090754439627    0.000000000000
 H   -3.714532094260   -0.132135439627    0.000000000000
 C   -3.176649094260   -3.510719439627    0.000000000000
 H   -3.714531094260   -4.469338439627    0.000000000000
 C   -1.771479094260   -1.085639439627    0.000000000000
 H   -1.224849094260   -0.133481439627    0.000000000000
 C   -1.771479094260   -3.515833439627    0.000000000000
 H   -1.224849094260   -4.467990439627    0.000000000000
 C   -0.976442094260   -2.300736439627    0.000000000000
 O    0.309904905740   -2.300736439627    0.000000000000
 K    4.809904905740    5.493492194433    0.000000000000
