13

 C   -3.967153021160   -2.402991396540    0.000000000000
 H   -5.062671021160   -2.402991396540    0.000000000000
 C   -3.235686021160   -1.193009396540    0.000000000000
 H   -3.773569021160   -0.234390396540    0.000000000000
 C   -3.235686021160   -3.612974396540    0.000000000000
 H   -3.773568021160   -4.571593396540    0.000000000000
 C   -1.830516021160   -1.187894396540    0.000000000000
 H   -1.283886021160   -0.235736396540    0.000000000000
 C   -1.830516021160   -3.618088396540    0.000000000000
 H   -1.283886021160   -4.570245396540    0.000000000000
 C   -1.035479021160   -2.402991396540    0.000000000000
 O    0.250867978840   -2.402991396540    0.000000000000
 K    4.950867978840    5.737647399034    0.000000000000
