17

 N   -1.870508124322   -1.493770723883    0.054185925573
 C   -0.660320057478   -0.838564520207    0.058147549541
 N    0.573092356825   -1.437242214669    0.070185834446
 C    1.543515556881   -0.547066073058    0.058313377473
 N    1.340438719468    0.814572060456    0.051478217131
 H    2.144265844719    1.434532600211   -0.030509805291
 N    2.868970311118   -0.965740794738   -0.020033925762
 H    3.523506516450   -0.433937570338    0.547606850968
 H    2.947775398509   -1.966440938673    0.141549412227
 C    0.081164977151    1.500605763987    0.064432003808
 O    0.053584608046    2.728778848764    0.060343875380
 C   -0.991620148825    0.526912374713    0.070633201748
 N   -2.362693450594    0.713243420026    0.070558017032
 C   -2.856216945105   -0.525359594019    0.060227917367
 H   -3.913714858373   -0.779506215851    0.057281272941
 H   -1.995605120853   -2.500353809115    0.045526374542
LI    3.324591893898   -1.082321837744   -1.231981875848
