17

 N   -1.872063781432   -1.493372673977    0.058323954841
 C   -0.661875714588   -0.838166470301    0.062285578809
 N    0.571536699715   -1.436844164763    0.074323863714
 C    1.541959899771   -0.546668023152    0.062451406741
 N    1.338883062358    0.814970110362    0.055616246399
 H    2.142710187609    1.434930650117   -0.026371776023
 N    2.867414654008   -0.965342744832   -0.015895896494
 H    3.521950859340   -0.433539520432    0.551744880236
 H    2.946219741399   -1.966042888767    0.145687441495
 C    0.079609320041    1.501003813893    0.068570033076
 O    0.052028950936    2.729176898670    0.064481904648
 C   -0.993175805935    0.527310424619    0.074771231016
 N   -2.364249107704    0.713641469932    0.074696046300
 C   -2.857772602215   -0.524961544113    0.064365946635
 H   -3.915270515483   -0.779108165945    0.061419302209
 H   -1.997160777963   -2.499955759209    0.049664403810
LI    3.358084050848   -1.090891560376   -1.321070611970
