17

 N   -1.873619438541   -1.492974624070    0.062461984110
 C   -0.663431371697   -0.837768420394    0.066423608078
 N    0.569981042606   -1.436446114856    0.078461892983
 C    1.540404242662   -0.546269973245    0.066589436010
 N    1.337327405249    0.815368160269    0.059754275668
 H    2.141154530500    1.435328700024   -0.022233746754
 N    2.865858996899   -0.964944694925   -0.011757867225
 H    3.520395202231   -0.433141470525    0.555882909505
 H    2.944664084290   -1.965644838860    0.149825470764
 C    0.078053662932    1.501401863800    0.072708062345
 O    0.050473293827    2.729574948577    0.068619933917
 C   -0.994731463044    0.527708474526    0.078909260285
 N   -2.365804764813    0.714039519839    0.078834075569
 C   -2.859328259324   -0.524563494206    0.068503975904
 H   -3.916826172592   -0.778710116038    0.065557331478
 H   -1.998716435072   -2.499557709302    0.053802433079
LI    3.391576207798   -1.099461283009   -1.410159348093
