17

 N   -1.876730752761   -1.492178524257    0.070738042648
 C   -0.666542685917   -0.836972320581    0.074699666616
 N    0.566869728386   -1.435650015043    0.086737951521
 C    1.537292928442   -0.545473873432    0.074865494548
 N    1.334216091029    0.816164260082    0.068030334206
 H    2.138043216280    1.436124799837   -0.013957688216
 N    2.862747682679   -0.964148595112   -0.003481808687
 H    3.517283888011   -0.432345370712    0.564158968043
 H    2.941552770070   -1.964848739047    0.158101529302
 C    0.074942348712    1.502197963613    0.080984120883
 O    0.047361979607    2.730371048390    0.076895992455
 C   -0.997842777264    0.528504574339    0.087185318823
 N   -2.368916079033    0.714835619652    0.087110134107
 C   -2.862439573544   -0.523767394393    0.076780034442
 H   -3.919937486812   -0.777914016225    0.073833390016
 H   -2.001827749292   -2.498761609489    0.062078491617
LI    3.458560521699   -1.116600728274   -1.588336820338
