17

 N   -2.005850292859   -1.459140382023    0.414194471957
 C   -0.795662226015   -0.803934178347    0.418156095925
 N    0.437750188288   -1.402611872809    0.430194380830
 C    1.408173388344   -0.512435731198    0.418321923857
 N    1.205096550931    0.849202402316    0.411486763515
 H    2.008923676182    1.469162942071    0.329498741093
 N    2.733628142581   -0.931110452878    0.339974620622
 H    3.388164347913   -0.399307228478    0.907615397352
 H    2.812433229972   -1.931810596813    0.501557958611
 C   -0.054177191386    1.535236105847    0.424440550192
 O   -0.081757560491    2.763409190624    0.420352421764
 C   -1.126962317362    0.561542716573    0.430641748132
 N   -2.498035619131    0.747873761886    0.430566563416
 C   -2.991559113642   -0.490729252159    0.420236463751
 H   -4.049057026910   -0.744875873991    0.417289819325
 H   -2.130947289390   -2.465723467255    0.405534920926
LI    6.238409548580   -1.827887706769   -8.982701918499
