17

 N   -1.881397724089   -1.490984374538    0.083152130454
 C   -0.671209657245   -0.835778170862    0.087113754422
 N    0.562202757058   -1.434455865324    0.099152039327
 C    1.532625957114   -0.544279723713    0.087279582354
 N    1.329549119701    0.817358409801    0.080444422012
 H    2.133376244952    1.437318949556   -0.001543600410
 N    2.858080711351   -0.962954445393    0.008932279119
 H    3.512616916683   -0.431151220993    0.576573055849
 H    2.936885798742   -1.963654589328    0.170515617108
 C    0.070275377384    1.503392113332    0.093398208689
 O    0.042695008279    2.731565198109    0.089310080261
 C   -1.002509748592    0.529698724058    0.099599406629
 N   -2.373583050361    0.716029769371    0.099524221913
 C   -2.867106544872   -0.522573244674    0.089194122248
 H   -3.924604458140   -0.776719866506    0.086247477822
 H   -2.006494720620   -2.497567459770    0.074492579423
LI    3.559036992550   -1.142309896171   -1.855603028705
