17

 N   -1.886064695418   -1.489790224819    0.095566218261
 C   -0.675876628574   -0.834584021143    0.099527842229
 N    0.557535785729   -1.433261715605    0.111566127134
 C    1.527958985785   -0.543085573994    0.099693670161
 N    1.324882148372    0.818552559520    0.092858509819
 H    2.128709273623    1.438513099275    0.010870487397
 N    2.853413740022   -0.961760295674    0.021346366926
 H    3.507949945354   -0.429957071274    0.588987143656
 H    2.932218827413   -1.962460439609    0.182929704915
 C    0.065608406055    1.504586263051    0.105812296496
 O    0.038028036950    2.732759347828    0.101724168068
 C   -1.007176719921    0.530892873777    0.112013494436
 N   -2.378250021690    0.717223919090    0.111938309720
 C   -2.871773516201   -0.521379094955    0.101608210055
 H   -3.929271429469   -0.775525716787    0.098661565629
 H   -2.011161691949   -2.496373310051    0.086906667230
LI    3.659513463401   -1.168019064069   -2.122869237072
