17

 N   -1.890731666747   -1.488596075099    0.107980306067
 C   -0.680543599903   -0.833389871423    0.111941930035
 N    0.552868814400   -1.432067565885    0.123980214940
 C    1.523292014456   -0.541891424274    0.112107757967
 N    1.320215177043    0.819746709240    0.105272597625
 H    2.124042302294    1.439707248995    0.023284575203
 N    2.848746768693   -0.960566145954    0.033760454732
 H    3.503282974025   -0.428762921554    0.601401231462
 H    2.927551856084   -1.961266289889    0.195343792721
 C    0.060941434726    1.505780412771    0.118226384302
 O    0.033361065621    2.733953497548    0.114138255874
 C   -1.011843691250    0.532087023497    0.124427582242
 N   -2.382916993019    0.718418068810    0.124352397526
 C   -2.876440487530   -0.520184945235    0.114022297861
 H   -3.933938400798   -0.774331567067    0.111075653435
 H   -2.015828663278   -2.495179160331    0.099320755036
LI    3.759989934252   -1.193728231966   -2.390135445440
