17

 N   -1.893842980966   -1.487799975286    0.116256364604
 C   -0.683654914122   -0.832593771610    0.120217988572
 N    0.549757500181   -1.431271466072    0.132256273477
 C    1.520180700237   -0.541095324461    0.120383816504
 N    1.317103862824    0.820542809053    0.113548656162
 H    2.120930988075    1.440503348808    0.031560633740
 N    2.845635454474   -0.959770046141    0.042036513269
 H    3.500171659806   -0.427966821741    0.609677289999
 H    2.924440541865   -1.960470190076    0.203619851258
 C    0.057830120507    1.506576512584    0.126502442839
 O    0.030249751402    2.734749597361    0.122414314411
 C   -1.014955005469    0.532883123310    0.132703640779
 N   -2.386028307238    0.719214168623    0.132628456063
 C   -2.879551801749   -0.519388845422    0.122298356398
 H   -3.937049715017   -0.773535467254    0.119351711972
 H   -2.018939977497   -2.494383060518    0.107596813573
LI    3.826974248153   -1.210867677231   -2.568312917684
