17

 N   -1.896954295186   -1.487003875474    0.124532423142
 C   -0.686766228342   -0.831797671798    0.128494047110
 N    0.546646185961   -1.430475366260    0.140532332015
 C    1.517069386017   -0.540299224649    0.128659875042
 N    1.313992548604    0.821338908865    0.121824714700
 H    2.117819673855    1.441299448620    0.039836692278
 N    2.842524140254   -0.958973946329    0.050312571807
 H    3.497060345586   -0.427170721929    0.617953348537
 H    2.921329227645   -1.959674090264    0.211895909796
 C    0.054718806287    1.507372612396    0.134778501377
 O    0.027138437182    2.735545697173    0.130690372949
 C   -1.018066319689    0.533679223122    0.140979699317
 N   -2.389139621458    0.720010268435    0.140904514601
 C   -2.882663115969   -0.518592745610    0.130574414936
 H   -3.940161029237   -0.772739367442    0.127627770510
 H   -2.022051291717   -2.493586960706    0.115872872111
LI    3.893958562054   -1.228007122496   -2.746490389929
