17

 N   -1.898509952295   -1.486605825567    0.128670452411
 C   -0.688321885451   -0.831399621891    0.132632076379
 N    0.545090528852   -1.430077316353    0.144670361284
 C    1.515513728908   -0.539901174742    0.132797904311
 N    1.312436891495    0.821736958772    0.125962743969
 H    2.116264016746    1.441697498527    0.043974721547
 N    2.840968483145   -0.958575896422    0.054450601076
 H    3.495504688477   -0.426772672022    0.622091377806
 H    2.919773570536   -1.959276040357    0.216033939065
 C    0.053163149178    1.507770662303    0.138916530646
 O    0.025582780073    2.735943747080    0.134828402218
 C   -1.019621976798    0.534077273029    0.145117728586
 N   -2.390695278567    0.720408318342    0.145042543870
 C   -2.884218773078   -0.518194695703    0.134712444205
 H   -3.941716686346   -0.772341317535    0.131765799779
 H   -2.023606948826   -2.493188910799    0.120010901380
LI    3.927450719004   -1.236576845129   -2.835579126052
