17

 N   -1.901621266514   -1.485809725754    0.136946510948
 C   -0.691433199670   -0.830603522078    0.140908134916
 N    0.541979214633   -1.429281216540    0.152946419821
 C    1.512402414689   -0.539105074929    0.141073962848
 N    1.309325577276    0.822533058585    0.134238802506
 H    2.113152702527    1.442493598340    0.052250780084
 N    2.837857168926   -0.957779796609    0.062726659613
 H    3.492393374258   -0.425976572209    0.630367436343
 H    2.916662256317   -1.958479940544    0.224309997602
 C    0.050051834959    1.508566762116    0.147192589183
 O    0.022471465854    2.736739846893    0.143104460755
 C   -1.022733291017    0.534873372842    0.153393787123
 N   -2.393806592786    0.721204418155    0.153318602407
 C   -2.887330087297   -0.517398595890    0.142988502742
 H   -3.944828000565   -0.771545217722    0.140041858316
 H   -2.026718263045   -2.492392810986    0.128286959917
LI    3.994435032905   -1.253716290393   -3.013756598296
