17

 N   -1.903176923624   -1.485411675848    0.141084540217
 C   -0.692988856780   -0.830205472172    0.145046164185
 N    0.540423557523   -1.428883166634    0.157084449090
 C    1.510846757579   -0.538707025023    0.145211992117
 N    1.307769920166    0.822931108491    0.138376831775
 H    2.111597045417    1.442891648246    0.056388809353
 N    2.836301511816   -0.957381746703    0.066864688882
 H    3.490837717148   -0.425578522303    0.634505465612
 H    2.915106599207   -1.958081890638    0.228448026871
 C    0.048496177849    1.508964812022    0.151330618452
 O    0.020915808744    2.737137896799    0.147242490024
 C   -1.024288948127    0.535271422748    0.157531816392
 N   -2.395362249896    0.721602468061    0.157456631676
 C   -2.888885744407   -0.517000545984    0.147126532011
 H   -3.946383657675   -0.771147167816    0.144179887585
 H   -2.028273920155   -2.491994761080    0.132424989186
LI    4.027927189855   -1.262286013026   -3.102845334419
