17

 N   -1.904732580734   -1.485013625941    0.145222569486
 C   -0.694544513890   -0.829807422265    0.149184193454
 N    0.538867900413   -1.428485116727    0.161222478359
 C    1.509291100469   -0.538308975116    0.149350021386
 N    1.306214263056    0.823329158398    0.142514861044
 H    2.110041388307    1.443289698153    0.060526838622
 N    2.834745854706   -0.956983696796    0.071002718151
 H    3.489282060038   -0.425180472396    0.638643494881
 H    2.913550942097   -1.957683840731    0.232586056140
 C    0.046940520739    1.509362861929    0.155468647721
 O    0.019360151634    2.737535946706    0.151380519293
 C   -1.025844605237    0.535669472655    0.161669845661
 N   -2.396917907006    0.722000517968    0.161594660945
 C   -2.890441401517   -0.516602496077    0.151264561280
 H   -3.947939314785   -0.770749117909    0.148317916854
 H   -2.029829577265   -2.491596711173    0.136563018455
LI    4.061419346806   -1.270855735658   -3.191934070541
