17

 N   -1.906288237843   -1.484615576035    0.149360598755
 C   -0.696100170999   -0.829409372359    0.153322222723
 N    0.537312243304   -1.428087066821    0.165360507628
 C    1.507735443360   -0.537910925210    0.153488050655
 N    1.304658605947    0.823727208304    0.146652890313
 H    2.108485731198    1.443687748059    0.064664867891
 N    2.833190197597   -0.956585646890    0.075140747420
 H    3.487726402929   -0.424782422490    0.642781524150
 H    2.911995284988   -1.957285790825    0.236724085409
 C    0.045384863630    1.509760911835    0.159606676990
 O    0.017804494525    2.737933996612    0.155518548562
 C   -1.027400262346    0.536067522561    0.165807874930
 N   -2.398473564115    0.722398567874    0.165732690214
 C   -2.891997058626   -0.516204446171    0.155402590549
 H   -3.949494971894   -0.770351068003    0.152455946123
 H   -2.031385234374   -2.491198661267    0.140701047724
LI    4.094911503756   -1.279425458291   -3.281022806664
