17

 N   -1.910955209172   -1.483421426316    0.161774686561
 C   -0.700767142328   -0.828215222640    0.165736310529
 N    0.532645271975   -1.426892917102    0.177774595434
 C    1.503068472031   -0.536716775491    0.165902138461
 N    1.299991634618    0.824921358023    0.159066978119
 H    2.103818759869    1.444881897778    0.077078955697
 N    2.828523226268   -0.955391497171    0.087554835226
 H    3.483059431600   -0.423588272771    0.655195611956
 H    2.907328313659   -1.956091641106    0.249138173215
 C    0.040717892301    1.510955061554    0.172020764796
 O    0.013137523196    2.739128146331    0.167932636368
 C   -1.032067233675    0.537261672280    0.178221962736
 N   -2.403140535444    0.723592717593    0.178146778020
 C   -2.896664029955   -0.515010296452    0.167816678355
 H   -3.954161943223   -0.769156918284    0.164870033929
 H   -2.036052205703   -2.490004511548    0.153115135530
LI    4.195387974607   -1.305134626188   -3.548289015031
