17

 N   -1.928067437378   -1.479042877345    0.207293008518
 C   -0.717879370534   -0.823836673669    0.211254632486
 N    0.515533043769   -1.422514368131    0.223292917391
 C    1.485956243825   -0.532338226520    0.211420460418
 N    1.282879406412    0.829299906994    0.204585300076
 H    2.086706531663    1.449260446749    0.122597277654
 N    2.811410998062   -0.951012948200    0.133073157183
 H    3.465947203394   -0.419209723800    0.700713933913
 H    2.890216085453   -1.951713092135    0.294656495172
 C    0.023605664095    1.515333610525    0.217539086753
 O   -0.003974705010    2.743506695302    0.213450958325
 C   -1.049179461881    0.541640221251    0.223740284693
 N   -2.420252763650    0.727971266564    0.223665099977
 C   -2.913776258161   -0.510631747481    0.213335000312
 H   -3.971274171429   -0.764778369313    0.210388355886
 H   -2.053164433909   -2.485625962577    0.198633457487
LI    4.563801701061   -1.399401575146   -4.528265112378
