17

 N   -1.934290065816   -1.477450677719    0.223845125593
 C   -0.724101998972   -0.822244474043    0.227806749561
 N    0.509310415331   -1.420922168505    0.239845034466
 C    1.479733615387   -0.530746026894    0.227972577493
 N    1.276656777974    0.830892106620    0.221137417151
 H    2.080483903225    1.450852646375    0.139149394729
 N    2.805188369624   -0.949420748574    0.149625274258
 H    3.459724574956   -0.417617524174    0.717266050988
 H    2.883993457015   -1.950120892509    0.311208612247
 C    0.017383035657    1.516925810151    0.234091203828
 O   -0.010197333448    2.745098894928    0.230003075400
 C   -1.055402090319    0.543232420877    0.240292401768
 N   -2.426475392088    0.729563466190    0.240217217052
 C   -2.919998886599   -0.509039547855    0.229887117387
 H   -3.977496799867   -0.763186169687    0.226940472961
 H   -2.059387062347   -2.484033762951    0.215185574562
LI    4.697770328863   -1.433680465675   -4.884620056867
