17

 N   -1.935845722926   -1.477052627812    0.227983154862
 C   -0.725657656082   -0.821846424136    0.231944778830
 N    0.507754758221   -1.420524118598    0.243983063735
 C    1.478177958277   -0.530347976987    0.232110606762
 N    1.275101120864    0.831290156527    0.225275446420
 H    2.078928246115    1.451250696282    0.143287423998
 N    2.803632712514   -0.949022698667    0.153763303527
 H    3.458168917846   -0.417219474267    0.721404080257
 H    2.882437799905   -1.949722842602    0.315346641516
 C    0.015827378547    1.517323860058    0.238229233097
 O   -0.011752990558    2.745496944835    0.234141104669
 C   -1.056957747429    0.543630470784    0.244430431037
 N   -2.428031049198    0.729961516097    0.244355246321
 C   -2.921554543709   -0.508641497948    0.234025146656
 H   -3.979052456977   -0.762788119780    0.231078502230
 H   -2.060942719457   -2.483635713044    0.219323603831
LI    4.731262485813   -1.442250188308   -4.973708792990
