17

 N   -1.940512694255   -1.475858478093    0.240397242668
 C   -0.730324627411   -0.820652274417    0.244358866636
 N    0.503087786892   -1.419329968879    0.256397151541
 C    1.473510986948   -0.529153827268    0.244524694568
 N    1.270434149535    0.832484306246    0.237689534226
 H    2.074261274786    1.452444846001    0.155701511804
 N    2.798965741185   -0.947828548948    0.166177391333
 H    3.453501946517   -0.416025324548    0.733818168063
 H    2.877770828576   -1.948528692883    0.327760729322
 C    0.011160407218    1.518518009777    0.250643320903
 O   -0.016419961887    2.746691094554    0.246555192475
 C   -1.061624718758    0.544824620503    0.256844518843
 N   -2.432698020527    0.731155665816    0.256769334127
 C   -2.926221515038   -0.507447348229    0.246439234462
 H   -3.983719428306   -0.761593970061    0.243492590036
 H   -2.065609690786   -2.482441563325    0.231737691637
LI    4.831738956664   -1.467959356205   -5.240975001357
