17

 N   -1.945179665584   -1.474664328374    0.252811330474
 C   -0.734991598740   -0.819458124698    0.256772954442
 N    0.498420815563   -1.418135819160    0.268811239347
 C    1.468844015619   -0.527959677549    0.256938782374
 N    1.265767178206    0.833678455965    0.250103622032
 H    2.069594303457    1.453638995720    0.168115599610
 N    2.794298769856   -0.946634399229    0.178591479139
 H    3.448834975188   -0.414831174829    0.746232255869
 H    2.873103857247   -1.947334543164    0.340174817128
 C    0.006493435889    1.519712159496    0.263057408709
 O   -0.021086933216    2.747885244273    0.258969280281
 C   -1.066291690087    0.546018770222    0.269258606649
 N   -2.437364991856    0.732349815535    0.269183421933
 C   -2.930888486367   -0.506253198510    0.258853322268
 H   -3.988386399635   -0.760399820342    0.255906677842
 H   -2.070276662115   -2.481247413606    0.244151779443
LI    4.932215427515   -1.493668524103   -5.508241209724
