17

 N   -1.946735322693   -1.474266278467    0.256949359743
 C   -0.736547255849   -0.819060074791    0.260910983711
 N    0.496865158454   -1.417737769253    0.272949268616
 C    1.467288358510   -0.527561627642    0.261076811643
 N    1.264211521097    0.834076505872    0.254241651301
 H    2.068038646348    1.454037045627    0.172253628879
 N    2.792743112747   -0.946236349322    0.182729508408
 H    3.447279318079   -0.414433124922    0.750370285138
 H    2.871548200138   -1.946936493257    0.344312846397
 C    0.004937778780    1.520110209403    0.267195437978
 O   -0.022642590325    2.748283294180    0.263107309550
 C   -1.067847347196    0.546416820129    0.273396635918
 N   -2.438920648965    0.732747865442    0.273321451202
 C   -2.932444143476   -0.505855148603    0.262991351537
 H   -3.989942056744   -0.760001770435    0.260044707111
 H   -2.071832319224   -2.480849363699    0.248289808712
LI    4.965707584466   -1.502238246735   -5.597329945847
