17

 N   -1.949846636913   -1.473470178655    0.265225418281
 C   -0.739658570069   -0.818263974979    0.269187042249
 N    0.493753844234   -1.416941669441    0.281225327154
 C    1.464177044290   -0.526765527830    0.269352870181
 N    1.261100206877    0.834872605684    0.262517709839
 H    2.064927332128    1.454833145439    0.180529687417
 N    2.789631798527   -0.945440249510    0.191005566946
 H    3.444168003859   -0.413637025110    0.758646343676
 H    2.868436885918   -1.946140393445    0.352588904935
 C    0.001826464560    1.520906309215    0.275471496516
 O   -0.025753904545    2.749079393992    0.271383368088
 C   -1.070958661416    0.547212919941    0.281672694456
 N   -2.442031963185    0.733543965254    0.281597509740
 C   -2.935555457696   -0.505059048791    0.271267410075
 H   -3.993053370964   -0.759205670623    0.268320765649
 H   -2.074943633444   -2.480053263887    0.256565867250
LI    5.032691898366   -1.519377692000   -5.775507418091
