17

 N   -1.954513608241   -1.472276028935    0.277639506087
 C   -0.744325541397   -0.817069825259    0.281601130055
 N    0.489086872906   -1.415747519721    0.293639414960
 C    1.459510072962   -0.525571378110    0.281766957987
 N    1.256433235549    0.836066755404    0.274931797645
 H    2.060260360800    1.456027295159    0.192943775223
 N    2.784964827199   -0.944246099790    0.203419654752
 H    3.439501032531   -0.412442875390    0.771060431482
 H    2.863769914590   -1.944946243725    0.365002992741
 C   -0.002840506768    1.522100458935    0.287885584322
 O   -0.030420875873    2.750273543712    0.283797455894
 C   -1.075625632744    0.548407069661    0.294086782262
 N   -2.446698934513    0.734738114974    0.294011597546
 C   -2.940222429024   -0.503864899071    0.283681497881
 H   -3.997720342292   -0.758011520903    0.280734853455
 H   -2.079610604772   -2.478859114167    0.268979955056
LI    5.133168369218   -1.545086859898   -6.042773626459
