17

 N   -1.956069265351   -1.471877979029    0.281777535356
 C   -0.745881198507   -0.816671775353    0.285739159324
 N    0.487531215796   -1.415349469815    0.297777444229
 C    1.457954415852   -0.525173328204    0.285904987256
 N    1.254877578439    0.836464805310    0.279069826914
 H    2.058704703690    1.456425345065    0.197081804492
 N    2.783409170089   -0.943848049884    0.207557684021
 H    3.437945375421   -0.412044825484    0.775198460751
 H    2.862214257480   -1.944548193819    0.369141022010
 C   -0.004396163878    1.522498508841    0.292023613591
 O   -0.031976532983    2.750671593618    0.287935485163
 C   -1.077181289854    0.548805119567    0.298224811531
 N   -2.448254591623    0.735136164880    0.298149626815
 C   -2.941778086134   -0.503466849165    0.287819527150
 H   -3.999275999402   -0.757613470997    0.284872882724
 H   -2.081166261882   -2.478461064261    0.273117984325
LI    5.166660526168   -1.553656582530   -6.131862362581
