17

 N   -1.965403208009   -1.469489679590    0.306605710969
 C   -0.755215141165   -0.814283475914    0.310567334937
 N    0.478197273138   -1.412961170376    0.322605619842
 C    1.448620473194   -0.522785028765    0.310733162869
 N    1.245543635781    0.838853104749    0.303898002527
 H    2.049370761032    1.458813644504    0.221909980105
 N    2.774075227431   -0.941459750445    0.232385859634
 H    3.428611432763   -0.409656526045    0.800026636364
 H    2.852880314822   -1.942159894380    0.393969197623
 C   -0.013730106536    1.524886808280    0.316851789204
 O   -0.041310475641    2.753059893057    0.312763660776
 C   -1.086515232512    0.551193419006    0.323052987144
 N   -2.457588534281    0.737524464319    0.322977802428
 C   -2.951112028792   -0.501078549726    0.312647702763
 H   -4.008609942060   -0.755225171558    0.309701058337
 H   -2.090500204540   -2.476072764822    0.297946159938
LI    5.367613467870   -1.605074918325   -6.666394779316
