17

 N   -1.973181493557   -1.467499430058    0.327295857313
 C   -0.762993426713   -0.812293226382    0.331257481281
 N    0.470418987590   -1.410970920844    0.343295766186
 C    1.440842187646   -0.520794779233    0.331423309213
 N    1.237765350233    0.840843354281    0.324588148871
 H    2.041592475484    1.460803894036    0.242600126449
 N    2.766296941883   -0.939469500913    0.253076005978
 H    3.420833147215   -0.407666276513    0.820716782708
 H    2.845102029274   -1.940169644848    0.414659343967
 C   -0.021508392084    1.526877057812    0.337541935548
 O   -0.049088761189    2.755050142589    0.333453807120
 C   -1.094293518060    0.553183668538    0.343743133488
 N   -2.465366819829    0.739514713851    0.343667948772
 C   -2.958890314340   -0.499088300194    0.333337849107
 H   -4.016388227608   -0.753234922026    0.330391204681
 H   -2.098278490088   -2.474082515290    0.318636306282
LI    5.535074252622   -1.647923531487   -7.111838459928
