17

 N   -1.974737150666   -1.467101380151    0.331433886581
 C   -0.764549083822   -0.811895176475    0.335395510549
 N    0.468863330481   -1.410572870937    0.347433795454
 C    1.439286530537   -0.520396729326    0.335561338481
 N    1.236209693124    0.841241404188    0.328726178139
 H    2.040036818375    1.461201943943    0.246738155717
 N    2.764741284774   -0.939071451006    0.257214035246
 H    3.419277490106   -0.407268226606    0.824854811976
 H    2.843546372165   -1.939771594941    0.418797373235
 C   -0.023064049193    1.527275107719    0.341679964816
 O   -0.050644418298    2.755448192496    0.337591836388
 C   -1.095849175169    0.553581718445    0.347881162756
 N   -2.466922476938    0.739912763758    0.347805978040
 C   -2.960445971449   -0.498690250287    0.337475878375
 H   -4.017943884717   -0.752836872119    0.334529233949
 H   -2.099834147197   -2.473684465383    0.322774335550
LI    5.568566409572   -1.656493254120   -7.200927196050
