17

 N   -1.979404121995   -1.465907230432    0.343847974388
 C   -0.769216055151   -0.810701026756    0.347809598356
 N    0.464196359152   -1.409378721218    0.359847883261
 C    1.434619559208   -0.519202579607    0.347975426288
 N    1.231542721795    0.842435553907    0.341140265946
 H    2.035369847046    1.462396093662    0.259152243524
 N    2.760074313445   -0.937877301287    0.269628123053
 H    3.414610518777   -0.406074076887    0.837268899783
 H    2.838879400836   -1.938577445222    0.431211461042
 C   -0.027731020522    1.528469257438    0.354094052623
 O   -0.055311389627    2.756642342215    0.350005924195
 C   -1.100516146498    0.554775868164    0.360295250563
 N   -2.471589448267    0.741106913477    0.360220065847
 C   -2.965112942778   -0.497496100568    0.349889966182
 H   -4.022610856046   -0.751642722400    0.346943321756
 H   -2.104501118526   -2.472490315664    0.335188423357
LI    5.669042880423   -1.682202422017   -7.468193404417
