17

 N   -1.980959779105   -1.465509180526    0.347986003656
 C   -0.770771712261   -0.810302976850    0.351947627624
 N    0.462640702042   -1.408980671312    0.363985912530
 C    1.433063902098   -0.518804529701    0.352113455556
 N    1.229987064685    0.842833603813    0.345278295214
 H    2.033814189936    1.462794143568    0.263290272793
 N    2.758518656335   -0.937479251381    0.273766152321
 H    3.413054861667   -0.405676026981    0.841406929052
 H    2.837323743726   -1.938179395316    0.435349490310
 C   -0.029286677632    1.528867307344    0.358232081891
 O   -0.056867046737    2.757040392121    0.354143953463
 C   -1.102071803608    0.555173918070    0.364433279831
 N   -2.473145105377    0.741504963383    0.364358095115
 C   -2.966668599888   -0.497098050662    0.354027995451
 H   -4.024166513156   -0.751244672494    0.351081351024
 H   -2.106056775636   -2.472092265758    0.339326452625
LI    5.702535037374   -1.690772144650   -7.557282140540
