17

 N   -1.982515436214   -1.465111130619    0.352124032925
 C   -0.772327369370   -0.809904926943    0.356085656893
 N    0.461085044933   -1.408582621405    0.368123941798
 C    1.431508244989   -0.518406479794    0.356251484825
 N    1.228431407576    0.843231653720    0.349416324483
 H    2.032258532827    1.463192193475    0.267428302061
 N    2.756962999226   -0.937081201474    0.277904181590
 H    3.411499204558   -0.405277977074    0.845544958320
 H    2.835768086617   -1.937781345409    0.439487519579
 C   -0.030842334741    1.529265357251    0.362370111160
 O   -0.058422703846    2.757438442028    0.358281982732
 C   -1.103627460717    0.555571967977    0.368571309100
 N   -2.474700762486    0.741903013290    0.368496124384
 C   -2.968224256997   -0.496700000755    0.358166024719
 H   -4.025722170265   -0.750846622587    0.355219380293
 H   -2.107612432745   -2.471694215851    0.343464481894
LI    5.736027194324   -1.699341867282   -7.646370876662
