17

 N   -1.984071093324   -1.464713080713    0.356262062194
 C   -0.773883026480   -0.809506877037    0.360223686162
 N    0.459529387823   -1.408184571499    0.372261971067
 C    1.429952587879   -0.518008429888    0.360389514094
 N    1.226875750466    0.843629703626    0.353554353752
 H    2.030702875717    1.463590243381    0.271566331330
 N    2.755407342116   -0.936683151568    0.282042210859
 H    3.409943547448   -0.404879927168    0.849682987589
 H    2.834212429507   -1.937383295503    0.443625548848
 C   -0.032397991851    1.529663407157    0.366508140429
 O   -0.059978360956    2.757836491934    0.362420012001
 C   -1.105183117827    0.555970017883    0.372709338369
 N   -2.476256419596    0.742301063196    0.372634153653
 C   -2.969779914107   -0.496301950849    0.362304053988
 H   -4.027277827375   -0.750448572681    0.359357409562
 H   -2.109168089855   -2.471296165945    0.347602511163
LI    5.769519351275   -1.707911589915   -7.735459612785
