17

 N   -1.990293721763   -1.463120881087    0.372814179269
 C   -0.780105654919   -0.807914677411    0.376775803237
 N    0.453306759384   -1.406592371873    0.388814088142
 C    1.423729959440   -0.516416230262    0.376941631169
 N    1.220653122027    0.845221903252    0.370106470827
 H    2.024480247278    1.465182443007    0.288118448405
 N    2.749184713677   -0.935090951942    0.298594327934
 H    3.403720919009   -0.403287727542    0.866235104664
 H    2.827989801068   -1.935791095877    0.460177665923
 C   -0.038620620290    1.531255606783    0.383060257504
 O   -0.066200989395    2.759428691560    0.378972129076
 C   -1.111405746266    0.557562217509    0.389261455444
 N   -2.482479048035    0.743893262822    0.389186270728
 C   -2.976002542546   -0.494709751223    0.378856171063
 H   -4.033500455814   -0.748856373055    0.375909526637
 H   -2.115390718294   -2.469703966319    0.364154628238
LI    5.903487979076   -1.742190480444   -8.091814557274
