17

 N   -1.999627664420   -1.460732581648    0.397642354882
 C   -0.789439597576   -0.805526377972    0.401603978850
 N    0.443972816727   -1.404204072434    0.413642263755
 C    1.414396016783   -0.514027930823    0.401769806782
 N    1.211319179370    0.847610202691    0.394934646440
 H    2.015146304621    1.467570742446    0.312946624018
 N    2.739850771020   -0.932702652503    0.323422503547
 H    3.394386976352   -0.400899428103    0.891063280277
 H    2.818655858411   -1.933402796438    0.485005841536
 C   -0.047954562947    1.533643906222    0.407888433117
 O   -0.075534932052    2.761816990999    0.403800304689
 C   -1.120739688923    0.559950516948    0.414089631057
 N   -2.491812990692    0.746281562261    0.414014446341
 C   -2.985336485203   -0.492321451784    0.403684346676
 H   -4.042834398471   -0.746468073616    0.400737702250
 H   -2.124724660951   -2.467315666880    0.388982803851
LI    6.104440920778   -1.793608816239   -8.626346974009
