17

 N   -2.001183321530   -1.460334531742    0.401780384151
 C   -0.790995254686   -0.805128328066    0.405742008119
 N    0.442417159617   -1.403806022528    0.417780293024
 C    1.412840359673   -0.513629880917    0.405907836051
 N    1.209763522260    0.848008252597    0.399072675709
 H    2.013590647511    1.467968792352    0.317084653287
 N    2.738295113910   -0.932304602597    0.327560532816
 H    3.392831319242   -0.400501378197    0.895201309546
 H    2.817100201301   -1.933004746532    0.489143870805
 C   -0.049510220057    1.534041956128    0.412026462386
 O   -0.077090589162    2.762215040905    0.407938333958
 C   -1.122295346033    0.560348566854    0.418227660326
 N   -2.493368647802    0.746679612167    0.418152475610
 C   -2.986892142313   -0.491923401878    0.407822375945
 H   -4.044390055581   -0.746070023710    0.404875731519
 H   -2.126280318061   -2.466917616974    0.393120833120
LI    6.137933077729   -1.802178538872   -8.715435710131
