17

 N   -2.002738978639   -1.459936481835    0.405918413420
 C   -0.792550911795   -0.804730278159    0.409880037388
 N    0.440861502508   -1.403407972621    0.421918322293
 C    1.411284702564   -0.513231831010    0.410045865320
 N    1.208207865151    0.848406302504    0.403210704978
 H    2.012034990402    1.468366842259    0.321222682556
 N    2.736739456801   -0.931906552690    0.331698562085
 H    3.391275662133   -0.400103328290    0.899339338815
 H    2.815544544192   -1.932606696625    0.493281900074
 C   -0.051065877166    1.534440006035    0.416164491655
 O   -0.078646246271    2.762613090812    0.412076363227
 C   -1.123851003142    0.560746616761    0.422365689595
 N   -2.494924304911    0.747077662074    0.422290504879
 C   -2.988447799422   -0.491525351971    0.411960405214
 H   -4.045945712690   -0.745671973803    0.409013760788
 H   -2.127835975170   -2.466519567067    0.397258862389
LI    6.171425234679   -1.810748261504   -8.804524446254
