17

 N   -2.004294635749   -1.459538431929    0.410056442688
 C   -0.794106568905   -0.804332228253    0.414018066656
 N    0.439305845398   -1.403009922715    0.426056351561
 C    1.409729045454   -0.512833781104    0.414183894588
 N    1.206652208041    0.848804352410    0.407348734246
 H    2.010479333292    1.468764892165    0.325360711824
 N    2.735183799691   -0.931508502784    0.335836591353
 H    3.389720005023   -0.399705278384    0.903477368083
 H    2.813988887082   -1.932208646719    0.497419929342
 C   -0.052621534276    1.534838055941    0.420302520923
 O   -0.080201903381    2.763011140718    0.416214392495
 C   -1.125406660252    0.561144666667    0.426503718863
 N   -2.496479962021    0.747475711980    0.426428534147
 C   -2.990003456532   -0.491127302065    0.416098434482
 H   -4.047501369800   -0.745273923897    0.413151790056
 H   -2.129391632280   -2.466121517161    0.401396891657
LI    6.204917391629   -1.819317984137   -8.893613182376
