10

 H    2.141359207309    1.225625722748   -0.901476000000
 H    0.939145207309    2.200872722748    0.000000000000
 H    2.141359207309    1.225625722748    0.901476000000
 C    1.510510207309    1.261153722748    0.000000000000
 S    0.312635207309   -0.111384277252    0.000000000000
 C    1.510510207309   -1.483922277252    0.000000000000
 H    2.141359207309   -1.448394277252    0.901476000000
 H    0.939145207309   -2.423641277252    0.000000000000
 H    2.141359207309   -1.448394277252   -0.901476000000
RB   -0.668614923752    0.081354354822    0.000000000000
