10

 H    2.538306538691    1.147656728671   -0.901476000000
 H    1.336092538691    2.122903728671    0.000000000000
 H    2.538306538691    1.147656728671    0.901476000000
 C    1.907457538691    1.183184728671    0.000000000000
 S    0.709582538691   -0.189353271329    0.000000000000
 C    1.907457538691   -1.561891271329    0.000000000000
 H    2.538306538691   -1.526363271329    0.901476000000
 H    1.336092538691   -2.501610271329    0.000000000000
 H    2.538306538691   -1.526363271329   -0.901476000000
RB   -0.958542684112    0.138302403198    0.000000000000
