10

 H    2.821840346821    1.091964590045   -0.901476000000
 H    1.619626346821    2.067211590045    0.000000000000
 H    2.821840346821    1.091964590045    0.901476000000
 C    2.190991346821    1.127492590045    0.000000000000
 S    0.993116346821   -0.245045409955    0.000000000000
 C    2.190991346821   -1.617583409955    0.000000000000
 H    2.821840346821   -1.582055409955    0.901476000000
 H    1.619626346821   -2.557302409955    0.000000000000
 H    2.821840346821   -1.582055409955   -0.901476000000
RB   -1.165633941512    0.178979580609    0.000000000000
