10

 H    2.878547108447    1.080826162320   -0.901476000000
 H    1.676333108447    2.056073162320    0.000000000000
 H    2.878547108447    1.080826162320    0.901476000000
 C    2.247698108447    1.116354162320    0.000000000000
 S    1.049823108447   -0.256183837680    0.000000000000
 C    2.247698108447   -1.628721837680    0.000000000000
 H    2.878547108447   -1.593193837680    0.901476000000
 H    1.676333108447   -2.568440837680    0.000000000000
 H    2.878547108447   -1.593193837680   -0.901476000000
RB   -1.207052192992    0.187115016092    0.000000000000
