10

 H    2.935253870073    1.069687734594   -0.901476000000
 H    1.733039870073    2.044934734594    0.000000000000
 H    2.935253870073    1.069687734594    0.901476000000
 C    2.304404870073    1.105215734594    0.000000000000
 S    1.106529870073   -0.267322265406    0.000000000000
 C    2.304404870073   -1.639860265406    0.000000000000
 H    2.935253870073   -1.604332265406    0.901476000000
 H    1.733039870073   -2.579579265406    0.000000000000
 H    2.935253870073   -1.604332265406   -0.901476000000
RB   -1.248470444472    0.195250451574    0.000000000000
