10

 H    3.105374154951    1.036272451419   -0.901476000000
 H    1.903160154951    2.011519451419    0.000000000000
 H    3.105374154951    1.036272451419    0.901476000000
 C    2.474525154951    1.071800451419    0.000000000000
 S    1.276650154951   -0.300737548581    0.000000000000
 C    2.474525154951   -1.673275548581    0.000000000000
 H    3.105374154951   -1.637747548581    0.901476000000
 H    1.903160154951   -2.612994548581    0.000000000000
 H    3.105374154951   -1.637747548581   -0.901476000000
RB   -1.372725198912    0.219656758021    0.000000000000
