10

 H    3.332201201455    0.991718740518   -0.901476000000
 H    2.129987201455    1.966965740518    0.000000000000
 H    3.332201201455    0.991718740518    0.901476000000
 C    2.701352201455    1.027246740518    0.000000000000
 S    1.503477201455   -0.345291259482    0.000000000000
 C    2.701352201455   -1.717829259482    0.000000000000
 H    3.332201201455   -1.682301259482    0.901476000000
 H    2.129987201455   -2.657548259482    0.000000000000
 H    3.332201201455   -1.682301259482   -0.901476000000
RB   -1.538398204832    0.252198499950    0.000000000000
