10

 H    3.388907963081    0.980580312792   -0.901476000000
 H    2.186693963081    1.955827312792    0.000000000000
 H    3.388907963081    0.980580312792    0.901476000000
 C    2.758058963081    1.016108312792    0.000000000000
 S    1.560183963081   -0.356429687208    0.000000000000
 C    2.758058963081   -1.728967687208    0.000000000000
 H    3.388907963081   -1.693439687208    0.901476000000
 H    2.186693963081   -2.668686687208    0.000000000000
 H    3.388907963081   -1.693439687208   -0.901476000000
RB   -1.579816456312    0.260333935432    0.000000000000
