10

 H    3.615735009585    0.936026601892   -0.901476000000
 H    2.413521009585    1.911273601892    0.000000000000
 H    3.615735009585    0.936026601892    0.901476000000
 C    2.984886009585    0.971554601892    0.000000000000
 S    1.787011009585   -0.400983398108    0.000000000000
 C    2.984886009585   -1.773521398108    0.000000000000
 H    3.615735009585   -1.737993398108    0.901476000000
 H    2.413521009585   -2.713240398108    0.000000000000
 H    3.615735009585   -1.737993398108   -0.901476000000
RB   -1.745489462232    0.292875677361    0.000000000000
