10

 H    3.842562056089    0.891472890991   -0.901476000000
 H    2.640348056089    1.866719890991    0.000000000000
 H    3.842562056089    0.891472890991    0.901476000000
 C    3.211713056089    0.927000890991    0.000000000000
 S    2.013838056089   -0.445537109009    0.000000000000
 C    3.211713056089   -1.818075109009    0.000000000000
 H    3.842562056089   -1.782547109009    0.901476000000
 H    2.640348056089   -2.757794109009    0.000000000000
 H    3.842562056089   -1.782547109009   -0.901476000000
RB   -1.911162468152    0.325417419290    0.000000000000
