10

 H    4.126095864219    0.835780752364   -0.901476000000
 H    2.923881864219    1.811027752364    0.000000000000
 H    4.126095864219    0.835780752364    0.901476000000
 C    3.495246864219    0.871308752364    0.000000000000
 S    2.297371864219   -0.501229247636    0.000000000000
 C    3.495246864219   -1.873767247636    0.000000000000
 H    4.126095864219   -1.838239247636    0.901476000000
 H    2.923881864219   -2.813486247636    0.000000000000
 H    4.126095864219   -1.838239247636   -0.901476000000
RB   -2.118253725552    0.366094596701    0.000000000000
