10

 H    4.352922910723    0.791227041463   -0.901476000000
 H    3.150708910723    1.766474041463    0.000000000000
 H    4.352922910723    0.791227041463    0.901476000000
 C    3.722073910723    0.826755041463    0.000000000000
 S    2.524198910723   -0.545782958537    0.000000000000
 C    3.722073910723   -1.918320958537    0.000000000000
 H    4.352922910723   -1.882792958537    0.901476000000
 H    3.150708910723   -2.858039958537    0.000000000000
 H    4.352922910723   -1.882792958537   -0.901476000000
RB   -2.283926731472    0.398636338630    0.000000000000
