10

 H    4.409629672350    0.780088613738   -0.901476000000
 H    3.207415672350    1.755335613738    0.000000000000
 H    4.409629672350    0.780088613738    0.901476000000
 C    3.778780672350    0.815616613738    0.000000000000
 S    2.580905672350   -0.556921386262    0.000000000000
 C    3.778780672350   -1.929459386262    0.000000000000
 H    4.409629672350   -1.893931386262    0.901476000000
 H    3.207415672350   -2.869178386262    0.000000000000
 H    4.409629672350   -1.893931386262   -0.901476000000
RB   -2.325344982952    0.406771774112    0.000000000000
