10

 H    5.373644619992    0.590735342409   -0.901476000000
 H    4.171430619992    1.565982342409    0.000000000000
 H    5.373644619992    0.590735342409    0.901476000000
 C    4.742795619992    0.626263342409    0.000000000000
 S    3.544920619992   -0.746274657591    0.000000000000
 C    4.742795619992   -2.118812657591    0.000000000000
 H    5.373644619992   -2.083284657591    0.901476000000
 H    4.171430619992   -3.058531657591    0.000000000000
 H    5.373644619992   -2.083284657591   -0.901476000000
RB   -3.029455258112    0.545074177311    0.000000000000
