10

 H    5.543764904870    0.557320059234   -0.901476000000
 H    4.341550904870    1.532567059234    0.000000000000
 H    5.543764904870    0.557320059234    0.901476000000
 C    4.912915904870    0.592848059234    0.000000000000
 S    3.715040904870   -0.779689940766    0.000000000000
 C    4.912915904870   -2.152227940766    0.000000000000
 H    5.543764904870   -2.116699940766    0.901476000000
 H    4.341550904870   -3.091946940766    0.000000000000
 H    5.543764904870   -2.116699940766   -0.901476000000
RB   -3.153710012552    0.569480483757    0.000000000000
