10

 H    6.054125759504    0.457074209706   -0.901476000000
 H    4.851911759504    1.432321209706    0.000000000000
 H    6.054125759504    0.457074209706    0.901476000000
 C    5.423276759504    0.492602209706    0.000000000000
 S    4.225401759504   -0.879935790294    0.000000000000
 C    5.423276759504   -2.252473790294    0.000000000000
 H    6.054125759504   -2.216945790294    0.901476000000
 H    4.851911759504   -3.192192790294    0.000000000000
 H    6.054125759504   -2.216945790294   -0.901476000000
RB   -3.526474275872    0.642699403098    0.000000000000
