10

 H    6.337659567634    0.401382071080   -0.901476000000
 H    5.135445567634    1.376629071080    0.000000000000
 H    6.337659567634    0.401382071080    0.901476000000
 C    5.706810567634    0.436910071080    0.000000000000
 S    4.508935567634   -0.935627928920    0.000000000000
 C    5.706810567634   -2.308165928920    0.000000000000
 H    6.337659567634   -2.272637928920    0.901476000000
 H    5.135445567634   -3.247884928920    0.000000000000
 H    6.337659567634   -2.272637928920   -0.901476000000
RB   -3.733565533272    0.683376580509    0.000000000000
