10

 H    6.564486614138    0.356828360179   -0.901476000000
 H    5.362272614138    1.332075360179    0.000000000000
 H    6.564486614138    0.356828360179    0.901476000000
 C    5.933637614138    0.392356360179    0.000000000000
 S    4.735762614138   -0.980181639821    0.000000000000
 C    5.933637614138   -2.352719639821    0.000000000000
 H    6.564486614138   -2.317191639821    0.901476000000
 H    5.362272614138   -3.292438639821    0.000000000000
 H    6.564486614138   -2.317191639821   -0.901476000000
RB   -3.899238539192    0.715918322438    0.000000000000
