10

 H    6.621193375764    0.345689932454   -0.901476000000
 H    5.418979375764    1.320936932454    0.000000000000
 H    6.621193375764    0.345689932454    0.901476000000
 C    5.990344375764    0.381217932454    0.000000000000
 S    4.792469375764   -0.991320067546    0.000000000000
 C    5.990344375764   -2.363858067546    0.000000000000
 H    6.621193375764   -2.328330067546    0.901476000000
 H    5.418979375764   -3.303577067546    0.000000000000
 H    6.621193375764   -2.328330067546   -0.901476000000
RB   -3.940656790673    0.724053757920    0.000000000000
