10

 H    6.791313660643    0.312274649278   -0.901476000000
 H    5.589099660643    1.287521649278    0.000000000000
 H    6.791313660643    0.312274649278    0.901476000000
 C    6.160464660643    0.347802649278    0.000000000000
 S    4.962589660643   -1.024735350722    0.000000000000
 C    6.160464660643   -2.397273350722    0.000000000000
 H    6.791313660643   -2.361745350722    0.901476000000
 H    5.589099660643   -3.336992350722    0.000000000000
 H    6.791313660643   -2.361745350722   -0.901476000000
RB   -4.064911545113    0.748460064367    0.000000000000
