10

 H    6.848020422269    0.301136221553   -0.901476000000
 H    5.645806422269    1.276383221553    0.000000000000
 H    6.848020422269    0.301136221553    0.901476000000
 C    6.217171422269    0.336664221553    0.000000000000
 S    5.019296422269   -1.035873778447    0.000000000000
 C    6.217171422269   -2.408411778447    0.000000000000
 H    6.848020422269   -2.372883778447    0.901476000000
 H    5.645806422269   -3.348130778447    0.000000000000
 H    6.848020422269   -2.372883778447   -0.901476000000
RB   -4.106329796593    0.756595499849    0.000000000000
