10

 H    6.961433945521    0.278859366103   -0.901476000000
 H    5.759219945521    1.254106366103    0.000000000000
 H    6.961433945521    0.278859366103    0.901476000000
 C    6.330584945521    0.314387366103    0.000000000000
 S    5.132709945521   -1.058150633897    0.000000000000
 C    6.330584945521   -2.430688633897    0.000000000000
 H    6.961433945521   -2.395160633897    0.901476000000
 H    5.759219945521   -3.370407633897    0.000000000000
 H    6.961433945521   -2.395160633897   -0.901476000000
RB   -4.189166299553    0.772866370814    0.000000000000
