10

 H    7.018140707147    0.267720938377   -0.901476000000
 H    5.815926707147    1.242967938377    0.000000000000
 H    7.018140707147    0.267720938377    0.901476000000
 C    6.387291707147    0.303248938377    0.000000000000
 S    5.189416707147   -1.069289061623    0.000000000000
 C    6.387291707147   -2.441827061623    0.000000000000
 H    7.018140707147   -2.406299061623    0.901476000000
 H    5.815926707147   -3.381546061623    0.000000000000
 H    7.018140707147   -2.406299061623   -0.901476000000
RB   -4.230584551033    0.781001806296    0.000000000000
