10

 H    7.131554230399    0.245444082927   -0.901476000000
 H    5.929340230399    1.220691082927    0.000000000000
 H    7.131554230399    0.245444082927    0.901476000000
 C    6.500705230399    0.280972082927    0.000000000000
 S    5.302830230399   -1.091565917073    0.000000000000
 C    6.500705230399   -2.464103917073    0.000000000000
 H    7.131554230399   -2.428575917073    0.901476000000
 H    5.929340230399   -3.403822917073    0.000000000000
 H    7.131554230399   -2.428575917073   -0.901476000000
RB   -4.313421053993    0.797272677260    0.000000000000
