34

 N    0.215990253554   -4.213676511570    0.089143694645
 C    1.274280253554   -3.334966511570    0.076373694645
 N    2.595330253554   -3.599686511570    0.091123694645
 C    3.345910253554   -2.504616511570    0.069593694645
 N    2.817920253554   -1.208036511570    0.036833694645
 H    3.456150253554   -0.413596511570    0.019173694645
 N    4.690640253554   -2.615186511570    0.074093694645
 H    5.316890253554   -1.822296511570    0.079893694645
 H    5.085450253554   -3.547886511570    0.105743694645
 C    1.467860253554   -0.917066511570    0.023603694645
 O    1.008850253554    0.269713488430   -0.004786305355
 C    0.667290253554   -2.075336511570    0.044493694645
 N   -0.713039746446   -2.161916511570    0.037103694645
 C   -0.946239746446   -3.478286511570    0.064823694645
 H   -1.928089746446   -3.944426511570    0.067513694645
 H    0.281170253554   -5.229476511570    0.112243694645
LI   -1.161569746446   -0.185196511570   -0.003586305355
LI    0.556470253554    2.067083488430   -0.036766305355
 C   -0.639190870108    1.987924318753   -0.042623906472
 N    0.741146652586    2.074505701897   -0.035233883811
 C    0.974343474415    3.390872274590   -0.062954112605
 H    1.956196562292    3.857012938767   -0.065649873513
 N   -0.187885263039    4.126262277595   -0.087269106262
 H   -0.253061155842    5.142061436582   -0.110368762051
 C   -1.246178455036    3.247554206932   -0.074501713198
 C   -1.439752310443    0.829658601219   -0.021731481166
 O   -0.980746565036   -0.357123139245    0.006663924883
 N   -2.789809627010    1.120627218203   -0.034958737701
 H   -3.428044785797    0.326188612759   -0.017289318696
 C   -3.317804567163    2.417210497314   -0.067719476438
 N   -2.567223365686    3.512273972787   -0.089250223626
 N   -4.662529115238    2.527778455388   -0.072208279478
 H   -5.288780102875    1.734895083175   -0.078005748797
 H   -5.057339695542    3.460473295945   -0.103864182210
