34

 N    0.230612923200   -4.259154184174    0.090118750372
 C    1.288902923200   -3.380444184174    0.077348750372
 N    2.609952923200   -3.645164184174    0.092098750372
 C    3.360532923200   -2.550094184174    0.070568750372
 N    2.832542923200   -1.253514184174    0.037808750372
 H    3.470772923200   -0.459074184174    0.020148750372
 N    4.705262923200   -2.660664184174    0.075068750372
 H    5.331512923200   -1.867774184174    0.080868750372
 H    5.100072923200   -3.593364184174    0.106718750372
 C    1.482482923200   -0.962544184174    0.024578750372
 O    1.023472923200    0.224235815826   -0.003811249628
 C    0.681912923200   -2.120814184174    0.045468750372
 N   -0.698417076800   -2.207394184174    0.038078750372
 C   -0.931617076800   -3.523764184174    0.065798750372
 H   -1.913467076800   -3.989904184174    0.068488750372
 H    0.295792923200   -5.274954184174    0.113218750372
LI   -1.146947076800   -0.230674184174   -0.002611249628
LI    0.571092923200    2.021605815826   -0.035791249628
 C   -0.655171938977    2.037626721632   -0.043689541756
 N    0.725165583717    2.124208104776   -0.036299519095
 C    0.958362405546    3.440574677470   -0.064019747888
 H    1.940215493423    3.906715341647   -0.066715508797
 N   -0.203866331908    4.175964680474   -0.088334741546
 H   -0.269042224711    5.191763839461   -0.111434397335
 C   -1.262159523905    3.297256609811   -0.075567348482
 C   -1.455733379312    0.879361004099   -0.022797116450
 O   -0.996727633906   -0.307420736365    0.005598289599
 N   -2.805790695879    1.170329621082   -0.036024372985
 H   -3.444025854666    0.375891015638   -0.018354953980
 C   -3.333785636032    2.466912900193   -0.068785111722
 N   -2.583204434555    3.561976375666   -0.090315858910
 N   -4.678510184107    2.577480858267   -0.073273914762
 H   -5.304761171744    1.784597486054   -0.079071384080
 H   -5.073320764411    3.510175698825   -0.104929817494
