34

 N    0.259858262491   -4.350109529383    0.092068861825
 C    1.318148262491   -3.471399529383    0.079298861825
 N    2.639198262491   -3.736119529383    0.094048861825
 C    3.389778262491   -2.641049529383    0.072518861825
 N    2.861788262491   -1.344469529383    0.039758861825
 H    3.500018262491   -0.550029529383    0.022098861825
 N    4.734508262491   -2.751619529383    0.077018861825
 H    5.360758262491   -1.958729529383    0.082818861825
 H    5.129318262491   -3.684319529383    0.108668861825
 C    1.511728262491   -1.053499529383    0.026528861825
 O    1.052718262491    0.133280470617   -0.001861138175
 C    0.711158262491   -2.211769529383    0.047418861825
 N   -0.669171737509   -2.298349529383    0.040028861825
 C   -0.902371737509   -3.614719529383    0.067748861825
 H   -1.884221737509   -4.080859529383    0.070438861825
 H    0.325038262491   -5.365909529383    0.115168861825
LI   -1.117701737509   -0.321629529383   -0.000661138175
LI    0.600338262491    1.930650470617   -0.033841138175
 C   -0.687134076715    2.137031527391   -0.045820812324
 N    0.693203445979    2.223612910535   -0.038430789663
 C    0.926400267808    3.539979483228   -0.066151018456
 H    1.908253355685    4.006120147405   -0.068846779365
 N   -0.235828469646    4.275369486232   -0.090466012114
 H   -0.301004362449    5.291168645220   -0.113565667903
 C   -1.294121661643    3.396661415570   -0.077698619049
 C   -1.487695517050    0.978765809857   -0.024928387018
 O   -1.028689771644   -0.208015930607    0.003467019031
 N   -2.837752833617    1.269734426841   -0.038155643553
 H   -3.475987992404    0.475295821396   -0.020486224548
 C   -3.365747773770    2.566317705951   -0.070916382289
 N   -2.615166572293    3.661381181424   -0.092447129478
 N   -4.710472321845    2.676885664026   -0.075405185329
 H   -5.336723309482    1.884002291812   -0.081202654648
 H   -5.105282902149    3.609580504583   -0.107061088062
