34

 N    0.289103601783   -4.441064874593    0.094018973278
 C    1.347393601783   -3.562354874593    0.081248973278
 N    2.668443601783   -3.827074874593    0.095998973278
 C    3.419023601783   -2.732004874593    0.074468973278
 N    2.891033601783   -1.435424874593    0.041708973278
 H    3.529263601783   -0.640984874593    0.024048973278
 N    4.763753601783   -2.842574874593    0.078968973278
 H    5.390003601783   -2.049684874593    0.084768973278
 H    5.158563601783   -3.775274874593    0.110618973278
 C    1.540973601783   -1.144454874593    0.028478973278
 O    1.081963601783    0.042325125407    0.000088973278
 C    0.740403601783   -2.302724874593    0.049368973278
 N   -0.639926398217   -2.389304874593    0.041978973278
 C   -0.873126398217   -3.705674874593    0.069698973278
 H   -1.854976398217   -4.171814874593    0.072388973278
 H    0.354283601783   -5.456864874593    0.117118973278
LI   -1.088456398217   -0.412584874593    0.001288973278
LI    0.629583601783    1.839695125407   -0.031891026722
 C   -0.719096214454    2.236436333150   -0.047952082892
 N    0.661241308241    2.323017716293   -0.040562060231
 C    0.894438130070    3.639384288987   -0.068282289024
 H    1.876291217947    4.105524953164   -0.070978049933
 N   -0.267790607385    4.374774291991   -0.092597282682
 H   -0.332966500187    5.390573450978   -0.115696938471
 C   -1.326083799382    3.496066221329   -0.079829889617
 C   -1.519657654788    1.078170615616   -0.027059657586
 O   -1.060651909382   -0.108611124848    0.001335748463
 N   -2.869714971355    1.369139232599   -0.040286914120
 H   -3.507950130142    0.574700627155   -0.022617495116
 C   -3.397709911508    2.665722511710   -0.073047652857
 N   -2.647128710032    3.760785987183   -0.094578400046
 N   -4.742434459583    2.776290469785   -0.077536455897
 H   -5.368685447221    1.983407097571   -0.083333925216
 H   -5.137245039887    3.708985310342   -0.109192358630
