34

 N    0.318348941074   -4.532020219802    0.095969084732
 C    1.376638941074   -3.653310219802    0.083199084732
 N    2.697688941074   -3.918030219802    0.097949084732
 C    3.448268941074   -2.822960219802    0.076419084732
 N    2.920278941074   -1.526380219802    0.043659084732
 H    3.558508941074   -0.731940219802    0.025999084732
 N    4.792998941074   -2.933530219802    0.080919084732
 H    5.419248941074   -2.140640219802    0.086719084732
 H    5.187808941074   -3.866230219802    0.112569084732
 C    1.570218941074   -1.235410219802    0.030429084732
 O    1.111208941074   -0.048630219802    0.002039084732
 C    0.769648941074   -2.393680219802    0.051319084732
 N   -0.610681058926   -2.480260219802    0.043929084732
 C   -0.843881058926   -3.796630219802    0.071649084732
 H   -1.825731058926   -4.262770219802    0.074339084732
 H    0.383528941074   -5.547820219802    0.119069084732
LI   -1.059211058926   -0.503540219802    0.003239084732
LI    0.658828941074    1.748739780198   -0.029940915268
 C   -0.751058352192    2.335841138908   -0.050083353459
 N    0.629279170503    2.422422522052   -0.042693330799
 C    0.862475992332    3.738789094745   -0.070413559592
 H    1.844329080209    4.204929758922   -0.073109320501
 N   -0.299752745123    4.474179097749   -0.094728553250
 H   -0.364928637926    5.489978256737   -0.117828209039
 C   -1.358045937120    3.595471027087   -0.081961160185
 C   -1.551619792526    1.177575421374   -0.029190928154
 O   -1.092614047120   -0.009206319090   -0.000795522105
 N   -2.901677109093    1.468544038358   -0.042418184688
 H   -3.539912267880    0.674105432914   -0.024748765684
 C   -3.429672049247    2.765127317469   -0.075178923425
 N   -2.679090847770    3.860190792942   -0.096709670613
 N   -4.774396597321    2.875695275543   -0.079667726465
 H   -5.400647584959    2.082811903330   -0.085465195784
 H   -5.169207177625    3.808390116100   -0.111323629198
