34

 N    1.517407852019   -8.261189373380    0.175923654322
 C    2.575697852019   -7.382479373380    0.163153654322
 N    3.896747852019   -7.647199373380    0.177903654322
 C    4.647327852019   -6.552129373380    0.156373654322
 N    4.119337852019   -5.255549373380    0.123613654322
 H    4.757567852019   -4.461109373380    0.105953654322
 N    5.992057852019   -6.662699373380    0.160873654322
 H    6.618307852019   -5.869809373380    0.166673654322
 H    6.386867852019   -7.595399373380    0.192523654322
 C    2.769277852019   -4.964579373380    0.110383654322
 O    2.310267852019   -3.777799373380    0.081993654322
 C    1.968707852019   -6.122849373380    0.131273654322
 N    0.588377852019   -6.209429373380    0.123883654322
 C    0.355177852019   -7.525799373380    0.151603654322
 H   -0.626672147981   -7.991939373380    0.154293654322
 H    1.582587852019   -9.276989373380    0.199023654322
LI    0.139847852019   -4.232709373380    0.083193654322
LI    1.857887852019   -1.980429373380    0.050013654322
 C   -2.061505999457    6.411438175009   -0.137465446741
 N   -0.681168476762    6.498019558153   -0.130075424081
 C   -0.447971654933    7.814386130846   -0.157795652874
 H    0.533881432944    8.280526795023   -0.160491413783
 N   -1.610200392388    8.549776133850   -0.182110646532
 H   -1.675376285190    9.565575292838   -0.205210302321
 C   -2.668493584385    7.671068063188   -0.169343253467
 C   -2.862067439791    5.253172457475   -0.116573021436
 O   -2.403061694385    4.066390717011   -0.088177615387
 N   -4.212124756358    5.544141074459   -0.129800277970
 H   -4.850359915145    4.749702469015   -0.112130858966
 C   -4.740119696512    6.840724353570   -0.162561016707
 N   -3.989538495035    7.935787829043   -0.184091763896
 N   -6.084844244586    6.951292311644   -0.167049819747
 H   -6.711095232224    6.158408939431   -0.172847289066
 H   -6.479654824890    7.883987152201   -0.198705722480
