34

 N    0.362216950011   -4.668453237616    0.098894251912
 C    1.420506950011   -3.789743237616    0.086124251912
 N    2.741556950011   -4.054463237616    0.100874251912
 C    3.492136950011   -2.959393237616    0.079344251912
 N    2.964146950011   -1.662813237616    0.046584251912
 H    3.602376950011   -0.868373237616    0.028924251912
 N    4.836866950011   -3.069963237616    0.083844251912
 H    5.463116950011   -2.277073237616    0.089644251912
 H    5.231676950011   -4.002663237616    0.115494251912
 C    1.614086950011   -1.371843237616    0.033354251912
 O    1.155076950011   -0.185063237616    0.004964251912
 C    0.813516950011   -2.530113237616    0.054244251912
 N   -0.566813049989   -2.616693237616    0.046854251912
 C   -0.800013049989   -3.933063237616    0.074574251912
 H   -1.781863049989   -4.399203237616    0.077264251912
 H    0.427396950011   -5.684253237616    0.121994251912
LI   -1.015343049989   -0.639973237616    0.006164251912
LI    0.702696950011    1.612306762384   -0.027015748088
 C   -0.799001558799    2.484948347546   -0.053280259311
 N    0.581335963895    2.571529730690   -0.045890236651
 C    0.814532785724    3.887896303383   -0.073610465444
 H    1.796385873602    4.354036967560   -0.076306226353
 N   -0.347695951730    4.623286306387   -0.097925459102
 H   -0.412871844533    5.639085465375   -0.121025114891
 C   -1.405989143727    3.744578235725   -0.085158066037
 C   -1.599562999134    1.326682630012   -0.032387834006
 O   -1.140557253727    0.139900889548   -0.003992427956
 N   -2.949620315700    1.617651246996   -0.045615090540
 H   -3.587855474488    0.823212641551   -0.027945671536
 C   -3.477615255854    2.914234526106   -0.078375829277
 N   -2.727034054377    4.009298001579   -0.099906576465
 N   -4.822339803929    3.024802484181   -0.082864632317
 H   -5.448590791566    2.231919111967   -0.088662101636
 H   -5.217150384233    3.957497324738   -0.114520535050
