34

 N    0.479198307176   -5.032274618453    0.106694697726
 C    1.537488307176   -4.153564618453    0.093924697726
 N    2.858538307176   -4.418284618453    0.108674697726
 C    3.609118307176   -3.323214618453    0.087144697726
 N    3.081128307176   -2.026634618453    0.054384697726
 H    3.719358307176   -1.232194618453    0.036724697726
 N    4.953848307176   -3.433784618453    0.091644697726
 H    5.580098307176   -2.640894618453    0.097444697726
 H    5.348658307176   -4.366484618453    0.123294697726
 C    1.731068307176   -1.735664618453    0.041154697726
 O    1.272058307176   -0.548884618453    0.012764697726
 C    0.930498307176   -2.893934618453    0.062044697726
 N   -0.449831692824   -2.980514618453    0.054654697726
 C   -0.683031692824   -4.296884618453    0.082374697726
 H   -1.664881692824   -4.763024618453    0.085064697726
 H    0.544378307176   -6.048074618453    0.129794697726
LI   -0.898361692824   -1.003794618453    0.013964697726
LI    0.819678307176    1.248485381547   -0.019215302274
 C   -0.926850109752    2.882567570580   -0.061805341583
 N    0.453487412943    2.969148953724   -0.054415318922
 C    0.686684234772    4.285515526417   -0.082135547715
 H    1.668537322649    4.751656190594   -0.084831308624
 N   -0.475544502683    5.020905529422   -0.106450541373
 H   -0.540720395485    6.036704688409   -0.129550197162
 C   -1.533837694680    4.142197458759   -0.093683148308
 C   -1.727411550086    1.724301853046   -0.040912916277
 O   -1.268405804680    0.537520112582   -0.012517510228
 N   -3.077468866653    2.015270470030   -0.054140172812
 H   -3.715704025440    1.220831864586   -0.036470753807
 C   -3.605463806807    3.311853749141   -0.086900911548
 N   -2.854882605330    4.406917224614   -0.108431658737
 N   -4.950188354881    3.422421707215   -0.091389714588
 H   -5.576439342519    2.629538335002   -0.097187183907
 H   -5.344998935185    4.355116547772   -0.123045617321
