34

 N    0.537688985759   -5.214185308871    0.110594920632
 C    1.595978985759   -4.335475308871    0.097824920632
 N    2.917028985759   -4.600195308871    0.112574920632
 C    3.667608985759   -3.505125308871    0.091044920632
 N    3.139618985759   -2.208545308871    0.058284920632
 H    3.777848985759   -1.414105308871    0.040624920632
 N    5.012338985759   -3.615695308871    0.095544920632
 H    5.638588985759   -2.822805308871    0.101344920632
 H    5.407148985759   -4.548395308871    0.127194920632
 C    1.789558985759   -1.917575308871    0.045054920632
 O    1.330548985759   -0.730795308871    0.016664920632
 C    0.988988985759   -3.075845308871    0.065944920632
 N   -0.391341014241   -3.162425308871    0.058554920632
 C   -0.624541014241   -4.478795308871    0.086274920632
 H   -1.606391014241   -4.944935308871    0.088964920632
 H    0.602868985759   -6.229985308871    0.133694920632
LI   -0.839871014241   -1.185705308871    0.017864920632
LI    0.878168985759    1.066574691129   -0.015315079368
 C   -0.990774385228    3.081377182097   -0.066067882718
 N    0.389563137466    3.167958565241   -0.058677860058
 C    0.622759959295    4.484325137935   -0.086398088851
 H    1.604613047173    4.950465802111   -0.089093849760
 N   -0.539468778159    5.219715140939   -0.110713082509
 H   -0.604644670962    6.235514299926   -0.133812738298
 C   -1.597761970156    4.341007070276   -0.097945689444
 C   -1.791335825563    1.923111464564   -0.045175457413
 O   -1.332330080156    0.736329724099   -0.016780051363
 N   -3.141393142130    2.214080081547   -0.058402713947
 H   -3.779628300917    1.419641476103   -0.040733294943
 C   -3.669388082283    3.510663360658   -0.091163452684
 N   -2.918806880806    4.605726836131   -0.112694199872
 N   -5.014112630358    3.621231318732   -0.095652255724
 H   -5.640363617995    2.828347946519   -0.101449725043
 H   -5.408923210662    4.553926159290   -0.127308158457
