34

 N    0.596179664342   -5.396095999289    0.114495143539
 C    1.654469664342   -4.517385999289    0.101725143539
 N    2.975519664342   -4.782105999289    0.116475143539
 C    3.726099664342   -3.687035999289    0.094945143539
 N    3.198109664342   -2.390455999289    0.062185143539
 H    3.836339664342   -1.596015999289    0.044525143539
 N    5.070829664342   -3.797605999289    0.099445143539
 H    5.697079664342   -3.004715999289    0.105245143539
 H    5.465639664342   -4.730305999289    0.131095143539
 C    1.848049664342   -2.099485999289    0.048955143539
 O    1.389039664342   -0.912705999289    0.020565143539
 C    1.047479664342   -3.257755999289    0.069845143539
 N   -0.332850335658   -3.344335999289    0.062455143539
 C   -0.566050335658   -4.660705999289    0.090175143539
 H   -1.547900335658   -5.126845999289    0.092865143539
 H    0.661359664342   -6.411895999289    0.137595143539
LI   -0.781380335658   -1.367615999289    0.021765143539
LI    0.936659664342    0.884664000711   -0.011414856461
 C   -1.054698660704    3.280186793615   -0.070330423854
 N    0.325638861990    3.366768176758   -0.062940401193
 C    0.558835683819    4.683134749452   -0.090660629987
 H    1.540688771696    5.149275413629   -0.093356390896
 N   -0.603393053635    5.418524752456   -0.114975623645
 H   -0.668568946438    6.434323911443   -0.138075279433
 C   -1.661686245632    4.539816681793   -0.102208230580
 C   -1.855260101039    2.121921076081   -0.049437998549
 O   -1.396254355633    0.935139335617   -0.021042592499
 N   -3.205317417606    2.412889693064   -0.062665255083
 H   -3.843552576393    1.618451087620   -0.044995836078
 C   -3.733312357759    3.709472972175   -0.095425993820
 N   -2.982731156282    4.804536447648   -0.116956741008
 N   -5.078036905834    3.820040930249   -0.099914796860
 H   -5.704287893471    3.027157558036   -0.105712266179
 H   -5.472847486138    4.752735770807   -0.131570699592
