34

 N    0.625425003633   -5.487051344499    0.116445254993
 C    1.683715003633   -4.608341344499    0.103675254993
 N    3.004765003633   -4.873061344499    0.118425254993
 C    3.755345003633   -3.777991344499    0.096895254993
 N    3.227355003633   -2.481411344499    0.064135254993
 H    3.865585003633   -1.686971344499    0.046475254993
 N    5.100075003633   -3.888561344499    0.101395254993
 H    5.726325003633   -3.095671344499    0.107195254993
 H    5.494885003633   -4.821261344499    0.133045254993
 C    1.877295003633   -2.190441344499    0.050905254993
 O    1.418285003633   -1.003661344499    0.022515254993
 C    1.076725003633   -3.348711344499    0.071795254993
 N   -0.303604996367   -3.435291344499    0.064405254993
 C   -0.536804996367   -4.751661344499    0.092125254993
 H   -1.518654996367   -5.217801344499    0.094815254993
 H    0.690605003633   -6.502851344499    0.139545254993
LI   -0.752134996367   -1.458571344499    0.023715254993
LI    0.965905003633    0.793708655501   -0.009464745007
 C   -1.086660798443    3.379591599373   -0.072461694422
 N    0.293676724252    3.466172982517   -0.065071671761
 C    0.526873546081    4.782539555210   -0.092791900554
 H    1.508726633958    5.248680219387   -0.095487661463
 N   -0.635355191373    5.517929558214   -0.117106894212
 H   -0.700531084176    6.533728717202   -0.140206550001
 C   -1.693648383370    4.639221487552   -0.104339501148
 C   -1.887222238777    2.221325881839   -0.051569269116
 O   -1.428216493371    1.034544141375   -0.023173863067
 N   -3.237279555344    2.512294498823   -0.064796525651
 H   -3.875514714131    1.717855893378   -0.047127106646
 C   -3.765274495497    3.808877777933   -0.097557264388
 N   -3.014693294020    4.903941253406   -0.119088011576
 N   -5.109999043572    3.919445736008   -0.102046067428
 H   -5.736250031209    3.126562363794   -0.107843536747
 H   -5.504809623876    4.852140576565   -0.133701970160
