34

 N    0.669293012570   -5.623484362313    0.119370422173
 C    1.727583012570   -4.744774362313    0.106600422173
 N    3.048633012570   -5.009494362313    0.121350422173
 C    3.799213012570   -3.914424362313    0.099820422173
 N    3.271223012570   -2.617844362313    0.067060422173
 H    3.909453012570   -1.823404362313    0.049400422173
 N    5.143943012570   -4.024994362313    0.104320422173
 H    5.770193012570   -3.232104362313    0.110120422173
 H    5.538753012570   -4.957694362313    0.135970422173
 C    1.921163012570   -2.326874362313    0.053830422173
 O    1.462153012570   -1.140094362313    0.025440422173
 C    1.120593012570   -3.485144362313    0.074720422173
 N   -0.259736987430   -3.571724362313    0.067330422173
 C   -0.492936987430   -4.888094362313    0.095050422173
 H   -1.474786987430   -5.354234362313    0.097740422173
 H    0.734473012570   -6.639284362313    0.142470422173
LI   -0.708266987430   -1.595004362313    0.026640422173
LI    1.009773012570    0.657275637687   -0.006539577827
 C   -1.134604005050    3.528698808011   -0.075658600274
 N    0.245733517645    3.615280191155   -0.068268577613
 C    0.478930339474    4.931646763848   -0.095988806406
 H    1.460783427351    5.397787428025   -0.098684567315
 N   -0.683298397981    5.667036766852   -0.120303800064
 H   -0.748474290784    6.682835925840   -0.143403455853
 C   -1.741591589978    4.788328696190   -0.107536406999
 C   -1.935165445385    2.370433090477   -0.054766174968
 O   -1.476159699978    1.183651350013   -0.026370768919
 N   -3.285222761951    2.661401707460   -0.067993431503
 H   -3.923457920738    1.866963102016   -0.050324012498
 C   -3.813217702105    3.957984986571   -0.100754170239
 N   -3.062636500628    5.053048462044   -0.122284917428
 N   -5.157942250179    4.068552944646   -0.105242973279
 H   -5.784193237817    3.275669572432   -0.111040442598
 H   -5.552752830483    5.001247785203   -0.136898876012
