34

 N    0.713161021507   -5.759917380126    0.122295589353
 C    1.771451021507   -4.881207380126    0.109525589353
 N    3.092501021507   -5.145927380126    0.124275589353
 C    3.843081021507   -4.050857380126    0.102745589353
 N    3.315091021507   -2.754277380126    0.069985589353
 H    3.953321021507   -1.959837380126    0.052325589353
 N    5.187811021507   -4.161427380126    0.107245589353
 H    5.814061021507   -3.368537380126    0.113045589353
 H    5.582621021507   -5.094127380126    0.138895589353
 C    1.965031021507   -2.463307380126    0.056755589353
 O    1.506021021507   -1.276527380126    0.028365589353
 C    1.164461021507   -3.621577380126    0.077645589353
 N   -0.215868978493   -3.708157380126    0.070255589353
 C   -0.449068978493   -5.024527380126    0.097975589353
 H   -1.430918978493   -5.490667380126    0.100665589353
 H    0.778341021507   -6.775717380126    0.145395589353
LI   -0.664398978493   -1.731437380126    0.029565589353
LI    1.053641021507    0.520842619874   -0.003614410647
 C   -1.182547211657    3.677806016649   -0.078855506125
 N    0.197790311037    3.764387399793   -0.071465483465
 C    0.430987132866    5.080753972486   -0.099185712258
 H    1.412840220744    5.546894636663   -0.101881473167
 N   -0.731241604588    5.816143975490   -0.123500705916
 H   -0.796417497391    6.831943134478   -0.146600361705
 C   -1.789534796585    4.937435904828   -0.110733312851
 C   -1.983108651992    2.519540299115   -0.057963080820
 O   -1.524102906585    1.332758558651   -0.029567674771
 N   -3.333165968559    2.810508916098   -0.071190337354
 H   -3.971401127346    2.016070310654   -0.053520918350
 C   -3.861160908712    4.107092195209   -0.103951076091
 N   -3.110579707235    5.202155670682   -0.125481823280
 N   -5.205885456787    4.217660153284   -0.108439879131
 H   -5.832136444424    3.424776781070   -0.114237348450
 H   -5.600696037091    5.150354993841   -0.140095781864
