34

 N    0.742406360798   -5.850872725336    0.124245700806
 C    1.800696360798   -4.972162725336    0.111475700806
 N    3.121746360798   -5.236882725336    0.126225700806
 C    3.872326360798   -4.141812725336    0.104695700806
 N    3.344336360798   -2.845232725336    0.071935700806
 H    3.982566360798   -2.050792725336    0.054275700806
 N    5.217056360798   -4.252382725336    0.109195700806
 H    5.843306360798   -3.459492725336    0.114995700806
 H    5.611866360798   -5.185082725336    0.140845700806
 C    1.994276360798   -2.554262725336    0.058705700806
 O    1.535266360798   -1.367482725336    0.030315700806
 C    1.193706360798   -3.712532725336    0.079595700806
 N   -0.186623639202   -3.799112725336    0.072205700806
 C   -0.419823639202   -5.115482725336    0.099925700806
 H   -1.401673639202   -5.581622725336    0.102615700806
 H    0.807586360798   -6.866672725336    0.147345700806
LI   -0.635153639202   -1.822392725336    0.031515700806
LI    1.082886360798    0.429887274664   -0.001664299194
 C   -1.214509349395    3.777210822407   -0.080986776693
 N    0.165828173299    3.863792205551   -0.073596754033
 C    0.399024995128    5.180158778244   -0.101316982826
 H    1.380878083005    5.646299442421   -0.104012743735
 N   -0.763203742326    5.915548781249   -0.125631976484
 H   -0.828379635129    6.931347940236   -0.148731632273
 C   -1.821496934323    5.036840710586   -0.112864583419
 C   -2.015070789730    2.618945104874   -0.060094351388
 O   -1.556065044323    1.432163364409   -0.031698945338
 N   -3.365128106297    2.909913721857   -0.073321607922
 H   -4.003363265084    2.115475116413   -0.055652188918
 C   -3.893123046450    4.206497000968   -0.106082346659
 N   -3.142541844973    5.301560476441   -0.127613093847
 N   -5.237847594525    4.317064959042   -0.110571149699
 H   -5.864098582162    3.524181586829   -0.116368619018
 H   -5.632658174829    5.249759799599   -0.142227052432
