34

 N    0.771651700090   -5.941828070545    0.126195812260
 C    1.829941700090   -5.063118070545    0.113425812260
 N    3.150991700090   -5.327838070545    0.128175812260
 C    3.901571700090   -4.232768070545    0.106645812260
 N    3.373581700090   -2.936188070545    0.073885812260
 H    4.011811700090   -2.141748070545    0.056225812260
 N    5.246301700090   -4.343338070545    0.111145812260
 H    5.872551700090   -3.550448070545    0.116945812260
 H    5.641111700090   -5.276038070545    0.142795812260
 C    2.023521700090   -2.645218070545    0.060655812260
 O    1.564511700090   -1.458438070545    0.032265812260
 C    1.222951700090   -3.803488070545    0.081545812260
 N   -0.157378299910   -3.890068070545    0.074155812260
 C   -0.390578299910   -5.206438070545    0.101875812260
 H   -1.372428299910   -5.672578070545    0.104565812260
 H    0.836831700090   -6.957628070545    0.149295812260
LI   -0.605908299910   -1.913348070545    0.033465812260
LI    1.112131700090    0.338931929455    0.000285812260
 C   -1.246471487133    3.876615628166   -0.083118047261
 N    0.133866035561    3.963197011310   -0.075728024601
 C    0.367062857390    5.279563584003   -0.103448253394
 H    1.348915945267    5.745704248180   -0.106144014303
 N   -0.795165880064    6.014953587007   -0.127763247052
 H   -0.860341772867    7.030752745995   -0.150862902841
 C   -1.853459072061    5.136245516345   -0.114995853987
 C   -2.047032927468    2.718349910632   -0.062225621956
 O   -1.588027182062    1.531568170168   -0.033830215906
 N   -3.397090244035    3.009318527615   -0.075452878490
 H   -4.035325402822    2.214879922171   -0.057783459486
 C   -3.925085184188    4.305901806726   -0.108213617227
 N   -3.174503982711    5.400965282199   -0.129744364415
 N   -5.269809732263    4.416469764801   -0.112702420267
 H   -5.896060719900    3.623586392587   -0.118499889586
 H   -5.664620312567    5.349164605358   -0.144358323000
