34

 N    0.800897039381   -6.032783415754    0.128145923713
 C    1.859187039381   -5.154073415754    0.115375923713
 N    3.180237039381   -5.418793415754    0.130125923713
 C    3.930817039381   -4.323723415754    0.108595923713
 N    3.402827039381   -3.027143415754    0.075835923713
 H    4.041057039381   -2.232703415754    0.058175923713
 N    5.275547039381   -4.434293415754    0.113095923713
 H    5.901797039381   -3.641403415754    0.118895923713
 H    5.670357039381   -5.366993415754    0.144745923713
 C    2.052767039381   -2.736173415754    0.062605923713
 O    1.593757039381   -1.549393415754    0.034215923713
 C    1.252197039381   -3.894443415754    0.083495923713
 N   -0.128132960619   -3.981023415754    0.076105923713
 C   -0.361332960619   -5.297393415754    0.103825923713
 H   -1.343182960619   -5.763533415754    0.106515923713
 H    0.866077039381   -7.048583415754    0.151245923713
LI   -0.576662960619   -2.004303415754    0.035415923713
LI    1.141377039381    0.247976584246    0.002235923713
 C   -1.278433624872    3.976020433924   -0.085249317829
 N    0.101903897823    4.062601817068   -0.077859295168
 C    0.335100719652    5.378968389762   -0.105579523962
 H    1.316953807529    5.845109053938   -0.108275284871
 N   -0.827128017802    6.114358392766   -0.129894517619
 H   -0.892303910605    7.130157551753   -0.152994173408
 C   -1.885421209799    5.235650322103   -0.117127124555
 C   -2.078995065206    2.817754716391   -0.064356892524
 O   -1.619989319800    1.630972975926   -0.035961486474
 N   -3.429052381773    3.108723333374   -0.077584149058
 H   -4.067287540560    2.314284727930   -0.059914730053
 C   -3.957047321926    4.405306612485   -0.110344887795
 N   -3.206466120450    5.500370087958   -0.131875634983
 N   -5.301771870001    4.515874570559   -0.114833690835
 H   -5.928022857638    3.722991198346   -0.120631160154
 H   -5.696582450305    5.448569411117   -0.146489593567
