34

 N    0.815519709027   -6.078261088359    0.129120979440
 C    1.873809709027   -5.199551088359    0.116350979440
 N    3.194859709027   -5.464271088359    0.131100979440
 C    3.945439709027   -4.369201088359    0.109570979440
 N    3.417449709027   -3.072621088359    0.076810979440
 H    4.055679709027   -2.278181088359    0.059150979440
 N    5.290169709027   -4.479771088359    0.114070979440
 H    5.916419709027   -3.686881088359    0.119870979440
 H    5.684979709027   -5.412471088359    0.145720979440
 C    2.067389709027   -2.781651088359    0.063580979440
 O    1.608379709027   -1.594871088359    0.035190979440
 C    1.266819709027   -3.939921088359    0.084470979440
 N   -0.113510290973   -4.026501088359    0.077080979440
 C   -0.346710290973   -5.342871088359    0.104800979440
 H   -1.328560290973   -5.809011088359    0.107490979440
 H    0.880699709027   -7.094061088359    0.152220979440
LI   -0.562040290973   -2.049781088359    0.036390979440
LI    1.155999709027    0.202498911641    0.003210979440
 C   -1.294414693741    4.025722836804   -0.086314953113
 N    0.085922828954    4.112304219948   -0.078924930452
 C    0.319119650783    5.428670792641   -0.106645159246
 H    1.300972738660    5.894811456818   -0.109340920154
 N   -0.843109086672    6.164060795645   -0.130960152903
 H   -0.908284979474    7.179859954633   -0.154059808692
 C   -1.901402278669    5.285352724983   -0.118192759839
 C   -2.094976134075    2.867457119270   -0.065422527808
 O   -1.635970388669    1.680675378806   -0.037027121758
 N   -3.445033450642    3.158425736253   -0.078649784342
 H   -4.083268609429    2.363987130809   -0.060980365337
 C   -3.973028390795    4.455009015364   -0.111410523079
 N   -3.222447189319    5.550072490837   -0.132941270267
 N   -5.317752938870    4.565576973439   -0.115899326119
 H   -5.944003926508    3.772693601225   -0.121696795438
 H   -5.712563519174    5.498271813996   -0.147555228851
