34

 N    0.859387717964   -6.214694106173    0.132046146620
 C    1.917677717964   -5.335984106173    0.119276146620
 N    3.238727717964   -5.600704106173    0.134026146620
 C    3.989307717964   -4.505634106173    0.112496146620
 N    3.461317717964   -3.209054106173    0.079736146620
 H    4.099547717964   -2.414614106173    0.062076146620
 N    5.334037717964   -4.616204106173    0.116996146620
 H    5.960287717964   -3.823314106173    0.122796146620
 H    5.728847717964   -5.548904106173    0.148646146620
 C    2.111257717964   -2.918084106173    0.066506146620
 O    1.652247717964   -1.731304106173    0.038116146620
 C    1.310687717964   -4.076354106173    0.087396146620
 N   -0.069642282036   -4.162934106173    0.080006146620
 C   -0.302842282036   -5.479304106173    0.107726146620
 H   -1.284692282036   -5.945444106173    0.110416146620
 H    0.924567717964   -7.230494106173    0.155146146620
LI   -0.518172282036   -2.186214106173    0.039316146620
LI    1.199867717964    0.066065893827    0.006136146620
 C   -1.342357900348    4.174830045442   -0.089511858965
 N    0.037979622346    4.261411428585   -0.082121836304
 C    0.271176444176    5.577778001279   -0.109842065097
 H    1.253029532053    6.043918665456   -0.112537826006
 N   -0.891052293279    6.313168004283   -0.134157058755
 H   -0.956228186082    7.328967163270   -0.157256714544
 C   -1.949345485276    5.434459933621   -0.121389665690
 C   -2.142919340683    3.016564327908   -0.068619433659
 O   -1.683913595276    1.829782587444   -0.040224027610
 N   -3.492976657249    3.307532944891   -0.081846690194
 H   -4.131211816036    2.513094339447   -0.064177271189
 C   -4.020971597403    4.604116224002   -0.114607428930
 N   -3.270390395926    5.699179699475   -0.136138176119
 N   -5.365696145477    4.714684182076   -0.119096231970
 H   -5.991947133115    3.921800809863   -0.124893701289
 H   -5.760506725781    5.647379022634   -0.150752134703
