34

 N    0.888633057255   -6.305649451382    0.133996258073
 C    1.946923057255   -5.426939451382    0.121226258073
 N    3.267973057255   -5.691659451382    0.135976258073
 C    4.018553057255   -4.596589451382    0.114446258073
 N    3.490563057255   -3.300009451382    0.081686258073
 H    4.128793057255   -2.505569451382    0.064026258073
 N    5.363283057255   -4.707159451382    0.118946258073
 H    5.989533057255   -3.914269451382    0.124746258073
 H    5.758093057255   -5.639859451382    0.150596258073
 C    2.140503057255   -3.009039451382    0.068456258073
 O    1.681493057255   -1.822259451382    0.040066258073
 C    1.339933057255   -4.167309451382    0.089346258073
 N   -0.040396942745   -4.253889451382    0.081956258073
 C   -0.273596942745   -5.570259451382    0.109676258073
 H   -1.255446942745   -6.036399451382    0.112366258073
 H    0.953813057255   -7.321449451382    0.157096258073
LI   -0.488926942745   -2.277169451382    0.041266258073
LI    1.229113057255   -0.024889451382    0.008086258073
 C   -1.374320038086    4.274234851200   -0.091643129533
 N    0.006017484608    4.360816234344   -0.084253106872
 C    0.239214306437    5.677182807037   -0.111973335665
 H    1.221067394315    6.143323471214   -0.114669096574
 N   -0.923014431017    6.412572810041   -0.136288329323
 H   -0.988190323820    7.428371969029   -0.159387985112
 C   -1.981307623014    5.533864739379   -0.123520936258
 C   -2.174881478421    3.115969133666   -0.070750704227
 O   -1.715875733014    1.929187393202   -0.042355298178
 N   -3.524938794988    3.406937750650   -0.083977960761
 H   -4.163173953775    2.612499145205   -0.066308541757
 C   -4.052933735141    4.703521029760   -0.116738699498
 N   -3.302352533664    5.798584505233   -0.138269446687
 N   -5.397658283216    4.814088987835   -0.121227502538
 H   -6.023909270853    4.021205615622   -0.127024971857
 H   -5.792468863520    5.746783828392   -0.152883405271
