34

 N    0.932501066192   -6.442082469196    0.136921425253
 C    1.990791066192   -5.563372469196    0.124151425253
 N    3.311841066192   -5.828092469196    0.138901425253
 C    4.062421066192   -4.733022469196    0.117371425253
 N    3.534431066192   -3.436442469196    0.084611425253
 H    4.172661066192   -2.642002469196    0.066951425253
 N    5.407151066192   -4.843592469196    0.121871425253
 H    6.033401066192   -4.050702469196    0.127671425253
 H    5.801961066192   -5.776292469196    0.153521425253
 C    2.184371066192   -3.145472469196    0.071381425253
 O    1.725361066192   -1.958692469196    0.042991425253
 C    1.383801066192   -4.303742469196    0.092271425253
 N    0.003471066192   -4.390322469196    0.084881425253
 C   -0.229728933808   -5.706692469196    0.112601425253
 H   -1.211578933808   -6.172832469196    0.115291425253
 H    0.997681066192   -7.457882469196    0.160021425253
LI   -0.445058933808   -2.413602469196    0.044191425253
LI    1.272981066192   -0.161322469196    0.011011425253
 C   -1.422263244693    4.423342059838   -0.094840035384
 N   -0.041925721999    4.509923442982   -0.087450012724
 C    0.191271099830    5.826290015675   -0.115170241517
 H    1.173124187707    6.292430679852   -0.117866002426
 N   -0.970957637624    6.561680018679   -0.139485235175
 H   -1.036133530427    7.577479177667   -0.162584890964
 C   -2.029250829621    5.682971948017   -0.126717842110
 C   -2.222824685028    3.265076342304   -0.073947610079
 O   -1.763818939622    2.078294601840   -0.045552204029
 N   -3.572882001595    3.556044959287   -0.087174866613
 H   -4.211117160382    2.761606353843   -0.069505447609
 C   -4.100876941748    4.852628238398   -0.119935605350
 N   -3.350295740271    5.947691713871   -0.141466352538
 N   -5.445601489823    4.963196196473   -0.124424408390
 H   -6.071852477460    4.170312824259   -0.130221877709
 H   -5.840412070127    5.895891037030   -0.156080311123
