34

 N    0.990991744775   -6.623993159614    0.140821648160
 C    2.049281744775   -5.745283159614    0.128051648160
 N    3.370331744775   -6.010003159614    0.142801648160
 C    4.120911744775   -4.914933159614    0.121271648160
 N    3.592921744775   -3.618353159614    0.088511648160
 H    4.231151744775   -2.823913159614    0.070851648160
 N    5.465641744775   -5.025503159614    0.125771648160
 H    6.091891744775   -4.232613159614    0.131571648160
 H    5.860451744775   -5.958203159614    0.157421648160
 C    2.242861744775   -3.327383159614    0.075281648160
 O    1.783851744775   -2.140603159614    0.046891648160
 C    1.442291744775   -4.485653159614    0.096171648160
 N    0.061961744775   -4.572233159614    0.088781648160
 C   -0.171238255225   -5.888603159614    0.116501648160
 H   -1.153088255225   -6.354743159614    0.119191648160
 H    1.056171744775   -7.639793159614    0.163921648160
LI   -0.386568255225   -2.595513159614    0.048091648160
LI    1.331471744775   -0.343233159614    0.014911648160
 C   -1.486187520170    4.622151671355   -0.099102576520
 N   -0.105849997475    4.708733054499   -0.091712553860
 C    0.127346824354    6.025099627192   -0.119432782653
 H    1.109199912231    6.491240291369   -0.122128543562
 N   -1.034881913101    6.760489630196   -0.143747776311
 H   -1.100057805903    7.776288789184   -0.166847432099
 C   -2.093175105098    5.881781559534   -0.130980383246
 C   -2.286748960504    3.463885953821   -0.078210151215
 O   -1.827743215098    2.277104213357   -0.049814745165
 N   -3.636806277071    3.754854570805   -0.091437407749
 H   -4.275041435858    2.960415965360   -0.073767988744
 C   -4.164801217225    5.051437849915   -0.124198146486
 N   -3.414220015748    6.146501325388   -0.145728893674
 N   -5.509525765299    5.162005807990   -0.128686949526
 H   -6.135776752937    4.369122435776   -0.134484418845
 H   -5.904336345603    6.094700648547   -0.160342852258
