34

 N    1.034859753712   -6.760426177428    0.143746815340
 C    2.093149753712   -5.881716177428    0.130976815340
 N    3.414199753712   -6.146436177428    0.145726815340
 C    4.164779753712   -5.051366177428    0.124196815340
 N    3.636789753712   -3.754786177428    0.091436815340
 H    4.275019753712   -2.960346177428    0.073776815340
 N    5.509509753712   -5.161936177428    0.128696815340
 H    6.135759753712   -4.369046177428    0.134496815340
 H    5.904319753712   -6.094636177428    0.160346815340
 C    2.286729753712   -3.463816177428    0.078206815340
 O    1.827719753712   -2.277036177428    0.049816815340
 C    1.486159753712   -4.622086177428    0.099096815340
 N    0.105829753712   -4.708666177428    0.091706815340
 C   -0.127370246288   -6.025036177428    0.119426815340
 H   -1.109220246288   -6.491176177428    0.122116815340
 H    1.100039753712   -7.776226177428    0.166846815340
LI   -0.342700246288   -2.731946177428    0.051016815340
LI    1.375339753712   -0.479666177428    0.017836815340
 C   -1.534130726777    4.771258879993   -0.102299482372
 N   -0.153793204083    4.857840263137   -0.094909459711
 C    0.079403617747    6.174206835830   -0.122629688504
 H    1.061256705624    6.640347500007   -0.125325449413
 N   -1.082825119708    6.909596838834   -0.146944682162
 H   -1.148001012511    7.925395997822   -0.170044337951
 C   -2.141118311705    6.030888768172   -0.134177289098
 C   -2.334692167112    3.612993162459   -0.081407057066
 O   -1.875686421705    2.426211421995   -0.053011651017
 N   -3.684749483678    3.903961779442   -0.094634313601
 H   -4.322984642465    3.109523173998   -0.076964894596
 C   -4.212744423832    5.200545058553   -0.127395052338
 N   -3.462163222355    6.295608534026   -0.148925799526
 N   -5.557468971906    5.311113016628   -0.131883855378
 H   -6.183719959544    4.518229644414   -0.137681324696
 H   -5.952279552210    6.243807857185   -0.163539758110
