34

 N    1.064105093003   -6.851381522637    0.145696926794
 C    2.122395093003   -5.972671522637    0.132926926794
 N    3.443445093003   -6.237391522637    0.147676926794
 C    4.194025093003   -5.142321522637    0.126146926794
 N    3.666035093003   -3.845741522637    0.093386926794
 H    4.304265093003   -3.051301522637    0.075726926794
 N    5.538755093003   -5.252891522637    0.130646926794
 H    6.165005093003   -4.460001522637    0.136446926794
 H    5.933565093003   -6.185591522637    0.162296926794
 C    2.315975093003   -3.554771522637    0.080156926794
 O    1.856965093003   -2.367991522637    0.051766926794
 C    1.515405093003   -4.713041522637    0.101046926794
 N    0.135075093003   -4.799621522637    0.093656926794
 C   -0.098124906997   -6.115991522637    0.121376926794
 H   -1.079974906997   -6.582131522637    0.124066926794
 H    1.129285093003   -7.867181522637    0.168796926794
LI   -0.313454906997   -2.822901522637    0.052966926794
LI    1.404585093003   -0.570621522637    0.019786926794
 C   -1.566092864515    4.870663685751   -0.104430752940
 N   -0.185755341821    4.957245068895   -0.097040730279
 C    0.047441480008    6.273611641589   -0.124760959072
 H    1.029294567886    6.739752305766   -0.127456719981
 N   -1.114787257446    7.009001644593   -0.149075952730
 H   -1.179963150249    8.024800803580   -0.172175608519
 C   -2.173080449443    6.130293573930   -0.136308559665
 C   -2.366654304850    3.712397968218   -0.083538327634
 O   -1.907648559443    2.525616227754   -0.055142921585
 N   -3.716711621417    4.003366585201   -0.096765584169
 H   -4.354946780204    3.208927979757   -0.079096165164
 C   -4.244706561570    5.299949864312   -0.129526322905
 N   -3.494125360093    6.395013339785   -0.151057070094
 N   -5.589431109645    5.410517822386   -0.134015125945
 H   -6.215682097282    4.617634450173   -0.139812595264
 H   -5.984241689949    6.343212662944   -0.165671028678
