34

 N    1.078727762649   -6.896859195242    0.146671982520
 C    2.137017762649   -6.018149195242    0.133901982520
 N    3.458067762649   -6.282869195242    0.148651982520
 C    4.208647762649   -5.187799195242    0.127121982520
 N    3.680657762649   -3.891219195242    0.094361982520
 H    4.318887762649   -3.096779195242    0.076701982520
 N    5.553377762649   -5.298369195242    0.131621982520
 H    6.179627762649   -4.505479195242    0.137421982520
 H    5.948187762649   -6.231069195242    0.163271982520
 C    2.330597762649   -3.600249195242    0.081131982520
 O    1.871587762649   -2.413469195242    0.052741982520
 C    1.530027762649   -4.758519195242    0.102021982520
 N    0.149697762649   -4.845099195242    0.094631982520
 C   -0.083502237351   -6.161469195242    0.122351982520
 H   -1.065352237351   -6.627609195242    0.125041982520
 H    1.143907762649   -7.912659195242    0.169771982520
LI   -0.298832237351   -2.868379195242    0.053941982520
LI    1.419207762649   -0.616099195242    0.020761982520
 C   -1.582073933384    4.920366088631   -0.105496388224
 N   -0.201736410690    5.006947471775   -0.098106365563
 C    0.031460411139    6.323314044468   -0.125826594356
 H    1.013313499017    6.789454708645   -0.128522355265
 N   -1.130768326315    7.058704047472   -0.150141588014
 H   -1.195944219118    8.074503206460   -0.173241243803
 C   -2.189061518312    6.179995976810   -0.137374194949
 C   -2.382635373719    3.762100371097   -0.084603962918
 O   -1.923629628312    2.575318630633   -0.056208556869
 N   -3.732692690286    4.053068988080   -0.097831219453
 H   -4.370927849073    3.258630382636   -0.080161800448
 C   -4.260687630439    5.349652267191   -0.130591958189
 N   -3.510106428962    6.444715742664   -0.152122705378
 N   -5.605412178514    5.460220225266   -0.135080761229
 H   -6.231663166151    4.667336853052   -0.140878230548
 H   -6.000222758818    6.392915065823   -0.166736663962
