34

 N    1.137218441232   -7.078769885660    0.150572205427
 C    2.195508441232   -6.200059885660    0.137802205427
 N    3.516558441232   -6.464779885660    0.152552205427
 C    4.267138441232   -5.369709885660    0.131022205427
 N    3.739148441232   -4.073129885660    0.098262205427
 H    4.377378441232   -3.278689885660    0.080602205427
 N    5.611868441232   -5.480279885660    0.135522205427
 H    6.238118441232   -4.687389885660    0.141322205427
 H    6.006678441232   -6.412979885660    0.167172205427
 C    2.389088441232   -3.782159885660    0.085032205427
 O    1.930078441232   -2.595379885660    0.056642205427
 C    1.588518441232   -4.940429885660    0.105922205427
 N    0.208188441232   -5.027009885660    0.098532205427
 C   -0.025011558768   -6.343379885660    0.126252205427
 H   -1.006861558768   -6.809519885660    0.128942205427
 H    1.202398441232   -8.094569885660    0.173672205427
LI   -0.240341558768   -3.050289885660    0.057842205427
LI    1.477698441232   -0.798009885660    0.024662205427
 C   -1.645998208860    5.119175700148   -0.109758929359
 N   -0.265660686166    5.205757083292   -0.102368906699
 C   -0.032463864337    6.522123655985   -0.130089135492
 H    0.949389223540    6.988264320162   -0.132784896401
 N   -1.194692601791    7.257513658989   -0.154404129150
 H   -1.259868494594    8.273312817977   -0.177503784939
 C   -2.252985793788    6.378805588327   -0.141636736085
 C   -2.446559649195    3.960909982614   -0.088866504054
 O   -1.987553903789    2.774128242150   -0.060471098004
 N   -3.796616965762    4.251878599597   -0.102093760588
 H   -4.434852124549    3.457439994153   -0.084424341584
 C   -4.324611905915    5.548461878708   -0.134854499325
 N   -3.574030704438    6.643525354181   -0.156385246513
 N   -5.669336453990    5.659029836783   -0.139343302365
 H   -6.295587441627    4.866146464569   -0.145140771684
 H   -6.064147034294    6.591724677340   -0.170999205098
