34

 N    1.268822468043   -7.488068939102    0.159347706968
 C    2.327112468043   -6.609358939102    0.146577706968
 N    3.648162468043   -6.874078939102    0.161327706968
 C    4.398742468043   -5.779008939102    0.139797706968
 N    3.870752468043   -4.482428939102    0.107037706968
 H    4.508982468043   -3.687988939102    0.089377706968
 N    5.743472468043   -5.889578939102    0.144297706968
 H    6.369722468043   -5.096688939102    0.150097706968
 H    6.138282468043   -6.822278939102    0.175947706968
 C    2.520692468043   -4.191458939102    0.093807706968
 O    2.061682468043   -3.004678939102    0.065417706968
 C    1.720122468043   -5.349728939102    0.114697706968
 N    0.339792468043   -5.436308939102    0.107307706968
 C    0.106592468043   -6.752678939102    0.135027706968
 H   -0.875257531957   -7.218818939102    0.137717706968
 H    1.334002468043   -8.503868939102    0.182447706968
LI   -0.108737531957   -3.459588939102    0.066617706968
LI    1.609302468043   -1.207308939102    0.033437706968
 C   -1.789827828682    5.566497326061   -0.119349646915
 N   -0.409490305988    5.653078709205   -0.111959624254
 C   -0.176293484159    6.969445281899   -0.139679853047
 H    0.805559603718    7.435585946075   -0.142375613956
 N   -1.338522221613    7.704835284903   -0.163994846705
 H   -1.403698114416    8.720634443890   -0.187094502494
 C   -2.396815413610    6.826127214240   -0.151227453640
 C   -2.590389269017    4.408231608528   -0.098457221609
 O   -2.131383523611    3.221449868063   -0.070061815560
 N   -3.940446585584    4.699200225511   -0.111684478144
 H   -4.578681744371    3.904761620067   -0.094015059139
 C   -4.468441525737    5.995783504622   -0.144445216880
 N   -3.717860324260    7.090846980095   -0.165975964069
 N   -5.813166073812    6.106351462696   -0.148934019920
 H   -6.439417061449    5.313468090483   -0.154731489239
 H   -6.207976654116    7.039046303254   -0.180589922653
