34

 N    1.312690476980   -7.624501956915    0.162272874148
 C    2.370980476980   -6.745791956915    0.149502874148
 N    3.692030476980   -7.010511956915    0.164252874148
 C    4.442610476980   -5.915441956915    0.142722874148
 N    3.914620476980   -4.618861956915    0.109962874148
 H    4.552850476980   -3.824421956915    0.092302874148
 N    5.787340476980   -6.026011956915    0.147222874148
 H    6.413590476980   -5.233121956915    0.153022874148
 H    6.182150476980   -6.958711956915    0.178872874148
 C    2.564560476980   -4.327891956915    0.096732874148
 O    2.105550476980   -3.141111956915    0.068342874148
 C    1.763990476980   -5.486161956915    0.117622874148
 N    0.383660476980   -5.572741956915    0.110232874148
 C    0.150460476980   -6.889111956915    0.137952874148
 H   -0.831389523020   -7.355251956915    0.140642874148
 H    1.377870476980   -8.640301956915    0.185372874148
LI   -0.064869523020   -3.596021956915    0.069542874148
LI    1.653170476980   -1.343741956915    0.036362874148
 C   -1.837771035289    5.715604534699   -0.122546552766
 N   -0.457433512595    5.802185917843   -0.115156530106
 C   -0.224236690766    7.118552490536   -0.142876758899
 H    0.757616397111    7.584693154713   -0.145572519808
 N   -1.386465428220    7.853942493541   -0.167191752557
 H   -1.451641321023    8.869741652528   -0.190291408346
 C   -2.444758620217    6.975234422878   -0.154424359492
 C   -2.638332475624    4.557338817165   -0.101654127461
 O   -2.179326730218    3.370557076701   -0.073258721412
 N   -3.988389792191    4.848307434149   -0.114881383995
 H   -4.626624950978    4.053868828705   -0.097211964991
 C   -4.516384732344    6.144890713260   -0.147642122732
 N   -3.765803530867    7.239954188733   -0.169172869921
 N   -5.861109280419    6.255458671334   -0.152130925772
 H   -6.487360268056    5.462575299121   -0.157928395091
 H   -6.255919860723    7.188153511891   -0.183786828505
