34

 N    1.341935816271   -7.715457302125    0.164222985601
 C    2.400225816271   -6.836747302125    0.151452985601
 N    3.721275816271   -7.101467302125    0.166202985601
 C    4.471855816271   -6.006397302125    0.144672985601
 N    3.943865816271   -4.709817302125    0.111912985601
 H    4.582095816271   -3.915377302125    0.094252985601
 N    5.816585816271   -6.116967302125    0.149172985601
 H    6.442835816271   -5.324077302125    0.154972985601
 H    6.211395816271   -7.049667302125    0.180822985601
 C    2.593805816271   -4.418847302125    0.098682985601
 O    2.134795816271   -3.232067302125    0.070292985601
 C    1.793235816271   -5.577117302125    0.119572985601
 N    0.412905816271   -5.663697302125    0.112182985601
 C    0.179705816271   -6.980067302125    0.139902985601
 H   -0.802144183729   -7.446207302125    0.142592985601
 H    1.407115816271   -8.731257302125    0.187322985601
LI   -0.035624183729   -3.686977302125    0.071492985601
LI    1.682415816271   -1.434697302125    0.038312985601
 C   -1.869733173028    5.815009340458   -0.124677823334
 N   -0.489395650333    5.901590723602   -0.117287800674
 C   -0.256198828504    7.217957296295   -0.145008029467
 H    0.725654259373    7.684097960472   -0.147703790376
 N   -1.418427565959    7.953347299299   -0.169323023125
 H   -1.483603458761    8.969146458287   -0.192422678914
 C   -2.476720757956    7.074639228637   -0.156555630060
 C   -2.670294613362    4.656743622924   -0.103785398029
 O   -2.211288867956    3.469961882460   -0.075389991979
 N   -4.020351929929    4.947712239907   -0.117012654563
 H   -4.658587088716    4.153273634463   -0.099343235559
 C   -4.548346870083    6.244295519018   -0.149773393300
 N   -3.797765668606    7.339358994491   -0.171304140488
 N   -5.893071418157    6.354863477093   -0.154262196340
 H   -6.519322405795    5.561980104879   -0.160059665659
 H   -6.287881998461    7.287558317650   -0.185918099073
