34

 N    1.356558485917   -7.760934974729    0.165198041328
 C    2.414848485917   -6.882224974729    0.152428041328
 N    3.735898485917   -7.146944974729    0.167178041328
 C    4.486478485917   -6.051874974729    0.145648041328
 N    3.958488485917   -4.755294974729    0.112888041328
 H    4.596718485917   -3.960854974729    0.095228041328
 N    5.831208485917   -6.162444974729    0.150148041328
 H    6.457458485917   -5.369554974729    0.155948041328
 H    6.226018485917   -7.095144974729    0.181798041328
 C    2.608428485917   -4.464324974729    0.099658041328
 O    2.149418485917   -3.277544974729    0.071268041328
 C    1.807858485917   -5.622594974729    0.120548041328
 N    0.427528485917   -5.709174974729    0.113158041328
 C    0.194328485917   -7.025544974729    0.140878041328
 H   -0.787521514083   -7.491684974729    0.143568041328
 H    1.421738485917   -8.776734974729    0.188298041328
LI   -0.021001514083   -3.732454974729    0.072468041328
LI    1.697038485917   -1.480174974729    0.039288041328
 C   -1.885714241897    5.864711743337   -0.125743458618
 N   -0.505376719202    5.951293126481   -0.118353435958
 C   -0.272179897373    7.267659699174   -0.146073664751
 H    0.709673190504    7.733800363351   -0.148769425660
 N   -1.434408634828    8.003049702178   -0.170388658409
 H   -1.499584527631    9.018848861166   -0.193488314198
 C   -2.492701826825    7.124341631516   -0.157621265344
 C   -2.686275682231    4.706446025803   -0.104851033313
 O   -2.227269936825    3.519664285339   -0.076455627263
 N   -4.036332998798    4.997414642787   -0.118078289847
 H   -4.674568157585    4.202976037342   -0.100408870843
 C   -4.564327938952    6.293997921897   -0.150839028584
 N   -3.813746737475    7.389061397370   -0.172369775772
 N   -5.909052487026    6.404565879972   -0.155327831624
 H   -6.535303474664    5.611682507759   -0.161125300943
 H   -6.303863067330    7.337260720529   -0.186983734357
