34

 N    1.371181155562   -7.806412647334    0.166173097055
 C    2.429471155562   -6.927702647334    0.153403097055
 N    3.750521155562   -7.192422647334    0.168153097055
 C    4.501101155562   -6.097352647334    0.146623097055
 N    3.973111155562   -4.800772647334    0.113863097055
 H    4.611341155562   -4.006332647334    0.096203097055
 N    5.845831155562   -6.207922647334    0.151123097055
 H    6.472081155562   -5.415032647334    0.156923097055
 H    6.240641155562   -7.140622647334    0.182773097055
 C    2.623051155562   -4.509802647334    0.100633097055
 O    2.164041155562   -3.323022647334    0.072243097055
 C    1.822481155562   -5.668072647334    0.121523097055
 N    0.442151155562   -5.754652647334    0.114133097055
 C    0.208951155562   -7.071022647334    0.141853097055
 H   -0.772898844438   -7.537162647334    0.144543097055
 H    1.436361155562   -8.822212647334    0.189273097055
LI   -0.006378844438   -3.777932647334    0.073443097055
LI    1.711661155562   -1.525652647334    0.040263097055
 C   -1.901695310766    5.914414146216   -0.126809093902
 N   -0.521357788071    6.000995529360   -0.119419071242
 C   -0.288160966242    7.317362102054   -0.147139300035
 H    0.693692121635    7.783502766230   -0.149835060944
 N   -1.450389703697    8.052752105058   -0.171454293693
 H   -1.515565596500    9.068551264045   -0.194553949482
 C   -2.508682895694    7.174044034395   -0.158686900628
 C   -2.702256751101    4.756148428683   -0.105916668597
 O   -2.243251005694    3.569366688218   -0.077521262547
 N   -4.052314067667    5.047117045666   -0.119143925131
 H   -4.690549226454    4.252678440222   -0.101474506127
 C   -4.580309007821    6.343700324777   -0.151904663868
 N   -3.829727806344    7.438763800250   -0.173435411056
 N   -5.925033555895    6.454268282851   -0.156393466908
 H   -6.551284543533    5.661384910638   -0.162190936227
 H   -6.319844136199    7.386963123409   -0.188049369641
