34

 N    1.415049164500   -7.942845665148    0.169098264235
 C    2.473339164500   -7.064135665148    0.156328264235
 N    3.794389164500   -7.328855665148    0.171078264235
 C    4.544969164500   -6.233785665148    0.149548264235
 N    4.016979164500   -4.937205665148    0.116788264235
 H    4.655209164500   -4.142765665148    0.099128264235
 N    5.889699164500   -6.344355665148    0.154048264235
 H    6.515949164500   -5.551465665148    0.159848264235
 H    6.284509164500   -7.277055665148    0.185698264235
 C    2.666919164500   -4.646235665148    0.103558264235
 O    2.207909164500   -3.459455665148    0.075168264235
 C    1.866349164500   -5.804505665148    0.124448264235
 N    0.486019164500   -5.891085665148    0.117058264235
 C    0.252819164500   -7.207455665148    0.144778264235
 H   -0.729030835500   -7.673595665148    0.147468264235
 H    1.480229164500   -8.958645665148    0.192198264235
LI    0.037489164500   -3.914365665148    0.076368264235
LI    1.755529164500   -1.662085665148    0.043188264235
 C   -1.949638517373    6.063521354854   -0.130005999754
 N   -0.569300994679    6.150102737998   -0.122615977093
 C   -0.336104172850    7.466469310691   -0.150336205887
 H    0.645748915028    7.932609974868   -0.153031966795
 N   -1.498332910304    8.201859313696   -0.174651199544
 H   -1.563508803107    9.217658472683   -0.197750855333
 C   -2.556626102301    7.323151243033   -0.161883806480
 C   -2.750199957708    4.905255637320   -0.109113574449
 O   -2.291194212301    3.718473896856   -0.080718168399
 N   -4.100257274275    5.196224254304   -0.122340830983
 H   -4.738492433062    4.401785648860   -0.104671411978
 C   -4.628252214428    6.492807533415   -0.155101569720
 N   -3.877671012951    7.587871008888   -0.176632316908
 N   -5.972976762503    6.603375491489   -0.159590372760
 H   -6.599227750140    5.810492119276   -0.165387842079
 H   -6.367787342807    7.536070332046   -0.191246275492
