34

 N    1.458917173437   -8.079278682962    0.172023431415
 C    2.517207173437   -7.200568682962    0.159253431415
 N    3.838257173437   -7.465288682962    0.174003431415
 C    4.588837173437   -6.370218682962    0.152473431415
 N    4.060847173437   -5.073638682962    0.119713431415
 H    4.699077173437   -4.279198682962    0.102053431415
 N    5.933567173437   -6.480788682962    0.156973431415
 H    6.559817173437   -5.687898682962    0.162773431415
 H    6.328377173437   -7.413488682962    0.188623431415
 C    2.710787173437   -4.782668682962    0.106483431415
 O    2.251777173437   -3.595888682962    0.078093431415
 C    1.910217173437   -5.940938682962    0.127373431415
 N    0.529887173437   -6.027518682962    0.119983431415
 C    0.296687173437   -7.343888682962    0.147703431415
 H   -0.685162826563   -7.810028682962    0.150393431415
 H    1.524097173437   -9.095078682962    0.195123431415
LI    0.081357173437   -4.050798682962    0.079293431415
LI    1.799397173437   -1.798518682962    0.046113431415
 C   -1.997581723980    6.212628563492   -0.133202905606
 N   -0.617244201286    6.299209946636   -0.125812882945
 C   -0.384047379457    7.615576519329   -0.153533111738
 H    0.597805708420    8.081717183506   -0.156228872647
 N   -1.546276116911    8.350966522333   -0.177848105396
 H   -1.611452009714    9.366765681321   -0.200947761185
 C   -2.604569308908    7.472258451671   -0.165080712331
 C   -2.798143164315    5.054362845958   -0.112310480300
 O   -2.339137418909    3.867581105494   -0.083915074251
 N   -4.148200480882    5.345331462942   -0.125537736835
 H   -4.786435639669    4.550892857497   -0.107868317830
 C   -4.676195421035    6.641914742052   -0.158298475571
 N   -3.925614219558    7.736978217525   -0.179829222760
 N   -6.020919969110    6.752482700127   -0.162787278611
 H   -6.647170956747    5.959599327913   -0.168584747930
 H   -6.415730549414    7.685177540684   -0.194443181344
