34

 N    1.502785182374   -8.215711700775    0.174948598595
 C    2.561075182374   -7.337001700775    0.162178598595
 N    3.882125182374   -7.601721700775    0.176928598595
 C    4.632705182374   -6.506651700775    0.155398598595
 N    4.104715182374   -5.210071700775    0.122638598595
 H    4.742945182374   -4.415631700775    0.104978598595
 N    5.977435182374   -6.617221700775    0.159898598595
 H    6.603685182374   -5.824331700775    0.165698598595
 H    6.372245182374   -7.549921700775    0.191548598595
 C    2.754655182374   -4.919101700775    0.109408598595
 O    2.295645182374   -3.732321700775    0.081018598595
 C    1.954085182374   -6.077371700775    0.130298598595
 N    0.573755182374   -6.163951700775    0.122908598595
 C    0.340555182374   -7.480321700775    0.150628598595
 H   -0.641294817626   -7.946461700775    0.153318598595
 H    1.567965182374   -9.231511700775    0.198048598595
LI    0.125225182374   -4.187231700775    0.082218598595
LI    1.843265182374   -1.934951700775    0.049038598595
 C   -2.045524930588    6.361735772130   -0.136399811458
 N   -0.665187407893    6.448317155274   -0.129009788797
 C   -0.431990586064    7.764683727967   -0.156730017590
 H    0.549862501813    8.230824392144   -0.159425778499
 N   -1.594219323519    8.500073730971   -0.181045011248
 H   -1.659395216321    9.515872889959   -0.204144667037
 C   -2.652512515516    7.621365660309   -0.168277618183
 C   -2.846086370922    5.203470054596   -0.115507386152
 O   -2.387080625516    4.016688314132   -0.087111980103
 N   -4.196143687489    5.494438671579   -0.128734642686
 H   -4.834378846276    4.700000066135   -0.111065223682
 C   -4.724138627642    6.791021950690   -0.161495381423
 N   -3.973557426166    7.886085426163   -0.183026128612
 N   -6.068863175717    6.901589908765   -0.165984184463
 H   -6.695114163355    6.108706536551   -0.171781653782
 H   -6.463673756021    7.834284749322   -0.197640087196
