11

 C   -0.967144956992   -0.689177627624   -0.403443220135
 H   -1.787401956992   -1.401475627624   -0.403443220135
 C   -0.967144956992    0.693896372376   -0.403443220135
 H   -1.787401956992    1.406194372376   -0.403443220135
 N    0.358889043008   -1.076760627624   -0.403443220135
 H    0.694708043008   -2.038190627624   -0.403443220135
 N    0.358889043008    1.081479372376   -0.403443220135
 H    0.694708043008    2.042909372376   -0.403443220135
 C    1.164423043008    0.002359372376   -0.403443220135
 H    2.250552043008    0.002359372376   -0.403443220135
CL   -0.025118677488   -0.004658531743    0.796590256939
