11

 C   -0.967143571505   -0.689176620866   -0.470681697714
 H   -1.787400571505   -1.401474620866   -0.470681697714
 C   -0.967143571505    0.693897379134   -0.470681697714
 H   -1.787400571505    1.406195379134   -0.470681697714
 N    0.358890428495   -1.076759620866   -0.470681697714
 H    0.694709428495   -2.038189620866   -0.470681697714
 N    0.358890428495    1.081480379134   -0.470681697714
 H    0.694709428495    2.042910379134   -0.470681697714
 C    1.164424428495    0.002360379134   -0.470681697714
 H    2.250553428495    0.002360379134   -0.470681697714
CL   -0.025121413104   -0.004660519565    0.929351234092
