11

 C   -0.967142430093   -0.689175791464   -0.537920001541
 H   -1.787399430093   -1.401473791464   -0.537920001541
 C   -0.967142430093    0.693898208536   -0.537920001541
 H   -1.787399430093    1.406196208536   -0.537920001541
 N    0.358891569907   -1.076758791464   -0.537920001541
 H    0.694710569907   -2.038188791464   -0.537920001541
 N    0.358891569907    1.081481208536   -0.537920001541
 H    0.694710569907    2.042911208536   -0.537920001541
 C    1.164425569907    0.002361208536   -0.537920001541
 H    2.250554569907    0.002361208536   -0.537920001541
CL   -0.025123666798   -0.004662157201    1.062111868175
