11

 C   -0.967141096308   -0.689174822276   -0.638777311606
 H   -1.787398096308   -1.401472822276   -0.638777311606
 C   -0.967141096308    0.693899177724   -0.638777311606
 H   -1.787398096308    1.406197177724   -0.638777311606
 N    0.358892903692   -1.076757822276   -0.638777311606
 H    0.694711903692   -2.038187822276   -0.638777311606
 N    0.358892903692    1.081482177724   -0.638777311606
 H    0.694711903692    2.042912177724   -0.638777311606
 C    1.164426903692    0.002362177724   -0.638777311606
 H    2.250555903692    0.002362177724   -0.638777311606
CL   -0.025126300328   -0.004664070844    1.261252531667
