11

 C   -0.967140734098   -0.689174559077   -0.672396401087
 H   -1.787397734098   -1.401472559077   -0.672396401087
 C   -0.967140734098    0.693899440923   -0.672396401087
 H   -1.787397734098    1.406197440923   -0.672396401087
 N    0.358893265902   -1.076757559077   -0.672396401087
 H    0.694712265902   -2.038187559077   -0.672396401087
 N    0.358893265902    1.081482440923   -0.672396401087
 H    0.694712265902    2.042912440923   -0.672396401087
 C    1.164427265902    0.002362440923   -0.672396401087
 H    2.250556265902    0.002362440923   -0.672396401087
CL   -0.025127015506   -0.004664590525    1.327632725436
