11

 C   -0.967139838874   -0.689173908567   -0.773253675459
 H   -1.787396838874   -1.401471908567   -0.773253675459
 C   -0.967139838874    0.693900091433   -0.773253675459
 H   -1.787396838874    1.406198091433   -0.773253675459
 N    0.358894161126   -1.076756908567   -0.773253675459
 H    0.694713161126   -2.038186908567   -0.773253675459
 N    0.358894161126    1.081483091433   -0.773253675459
 H    0.694713161126    2.042913091433   -0.773253675459
 C    1.164428161126    0.002363091433   -0.773253675459
 H    2.250557161126    0.002363091433   -0.773253675459
CL   -0.025128783107   -0.004665874944    1.526773318452
