11

 C   -0.967138651415   -0.689173045705   -0.974968369921
 H   -1.787395651415   -1.401471045705   -0.974968369921
 C   -0.967138651415    0.693900954295   -0.974968369921
 H   -1.787395651415    1.406198954295   -0.974968369921
 N    0.358895348585   -1.076756045705   -0.974968369921
 H    0.694714348585   -2.038186045705   -0.974968369921
 N    0.358895348585    1.081483954295   -0.974968369921
 H    0.694714348585    2.042913954295   -0.974968369921
 C    1.164429348585    0.002363954295   -0.974968369921
 H    2.250558348585    0.002363954295   -0.974968369921
CL   -0.025131127718   -0.004667578645    1.925054792204
