11

 C   -0.967138507309   -0.689172940991   -1.008587509947
 H   -1.787395507309   -1.401470940991   -1.008587509947
 C   -0.967138507309    0.693901059009   -1.008587509947
 H   -1.787395507309    1.406199059009   -1.008587509947
 N    0.358895492691   -1.076755940991   -1.008587509947
 H    0.694714492691   -2.038185940991   -1.008587509947
 N    0.358895492691    1.081484059009   -1.008587509947
 H    0.694714492691    2.042914059009   -1.008587509947
 C    1.164429492691    0.002364059009   -1.008587509947
 H    2.250558492691    0.002364059009   -1.008587509947
CL   -0.025131412253   -0.004667785401    1.991435085773
