11

 C   -0.967138374622   -0.689172844575   -1.042206656956
 H   -1.787395374622   -1.401470844575   -1.042206656956
 C   -0.967138374622    0.693901155425   -1.042206656956
 H   -1.787395374622    1.406199155425   -1.042206656956
 N    0.358895625378   -1.076755844575   -1.042206656956
 H    0.694714625378   -2.038185844575   -1.042206656956
 N    0.358895625378    1.081484155425   -1.042206656956
 H    0.694714625378    2.042914155425   -1.042206656956
 C    1.164429625378    0.002364155425   -1.042206656956
 H    2.250558625378    0.002364155425   -1.042206656956
CL   -0.025131674241   -0.004667975773    2.057815393131
