11

 C   -0.967138252239   -0.689172755645   -1.075825810795
 H   -1.787395252239   -1.401470755645   -1.075825810795
 C   -0.967138252239    0.693901244355   -1.075825810795
 H   -1.787395252239    1.406199244355   -1.075825810795
 N    0.358895747761   -1.076755755645   -1.075825810795
 H    0.694714747761   -2.038185755645   -1.075825810795
 N    0.358895747761    1.081484244355   -1.075825810795
 H    0.694714747761    2.042914244355   -1.075825810795
 C    1.164429747761    0.002364244355   -1.075825810795
 H    2.250558747761    0.002364244355   -1.075825810795
CL   -0.025131915885   -0.004668151363    2.124195713974
