11

 C   -0.967138139168   -0.689172673483   -1.109444971275
 H   -1.787395139168   -1.401470673483   -1.109444971275
 C   -0.967138139168    0.693901326517   -1.109444971275
 H   -1.787395139168    1.406199326517   -1.109444971275
 N    0.358895860832   -1.076755673483   -1.109444971275
 H    0.694714860832   -2.038185673483   -1.109444971275
 N    0.358895860832    1.081484326517   -1.109444971275
 H    0.694714860832    2.042914326517   -1.109444971275
 C    1.164429860832    0.002364326517   -1.109444971275
 H    2.250558860832    0.002364326517   -1.109444971275
CL   -0.025132139140   -0.004668313590    2.190576047930
