11

 C   -0.967137847497   -0.689172461542   -1.210302490363
 H   -1.787394847497   -1.401470461542   -1.210302490363
 C   -0.967137847497    0.693901538458   -1.210302490363
 H   -1.787394847497    1.406199538458   -1.210302490363
 N    0.358896152503   -1.076755461542   -1.210302490363
 H    0.694715152503   -2.038185461542   -1.210302490363
 N    0.358896152503    1.081484538458   -1.210302490363
 H    0.694715152503    2.042914538458   -1.210302490363
 C    1.164430152503    0.002364538458   -1.210302490363
 H    2.250559152503    0.002364538458   -1.210302490363
CL   -0.025132715038   -0.004668732064    2.389717124132
