11

 C   -0.967137134550   -0.689171943482   -1.613733020964
 H   -1.787394134550   -1.401469943482   -1.613733020964
 C   -0.967137134550    0.693902056518   -1.613733020964
 H   -1.787394134550    1.406200056518   -1.613733020964
 N    0.358896865450   -1.076754943482   -1.613733020964
 H    0.694715865450   -2.038184943482   -1.613733020964
 N    0.358896865450    1.081485056518   -1.613733020964
 H    0.694715865450    2.042915056518   -1.613733020964
 C    1.164430865450    0.002365056518   -1.613733020964
 H    2.250559865450    0.002365056518   -1.613733020964
CL   -0.025134122738   -0.004669754962    3.186282325850
