11

 C   -0.967136903565   -0.689171775638   -1.849067737883
 H   -1.787393903565   -1.401469775638   -1.849067737883
 C   -0.967136903565    0.693902224362   -1.849067737883
 H   -1.787393903565    1.406200224362   -1.849067737883
 N    0.358897096435   -1.076754775638   -1.849067737883
 H    0.694716096435   -2.038184775638   -1.849067737883
 N    0.358897096435    1.081485224362   -1.849067737883
 H    0.694716096435    2.042915224362   -1.849067737883
 C    1.164431096435    0.002365224362   -1.849067737883
 H    2.250560096435    0.002365224362   -1.849067737883
CL   -0.025134578812   -0.004670086367    3.650945835513
