11

 C   -0.967136851839   -0.689171738052   -1.916306251725
 H   -1.787393851839   -1.401469738052   -1.916306251725
 C   -0.967136851839    0.693902261948   -1.916306251725
 H   -1.787393851839    1.406200261948   -1.916306251725
 N    0.358897148161   -1.076754738052   -1.916306251725
 H    0.694716148161   -2.038184738052   -1.916306251725
 N    0.358897148161    1.081485261948   -1.916306251725
 H    0.694716148161    2.042915261948   -1.916306251725
 C    1.164431148161    0.002365261948   -1.916306251725
 H    2.250560148161    0.002365261948   -1.916306251725
CL   -0.025134680944   -0.004670160580    3.783706884266
