11

 C   -0.967136723816   -0.689171645024   -2.118021843066
 H   -1.787393723816   -1.401469645024   -2.118021843066
 C   -0.967136723816    0.693902354976   -2.118021843066
 H   -1.787393723816    1.406200354976   -2.118021843066
 N    0.358897276184   -1.076754645024   -2.118021843066
 H    0.694716276184   -2.038184645024   -2.118021843066
 N    0.358897276184    1.081485354976   -2.118021843066
 H    0.694716276184    2.042915354976   -2.118021843066
 C    1.164431276184    0.002365354976   -2.118021843066
 H    2.250560276184    0.002365354976   -2.118021843066
CL   -0.025134933724   -0.004670344262    4.181990128884
