11

 C   -0.967136705754   -0.689171631899   -2.151641114687
 H   -1.787393705754   -1.401469631899   -2.151641114687
 C   -0.967136705754    0.693902368101   -2.151641114687
 H   -1.787393705754    1.406200368101   -2.151641114687
 N    0.358897294246   -1.076754631899   -2.151641114687
 H    0.694716294246   -2.038184631899   -2.151641114687
 N    0.358897294246    1.081485368101   -2.151641114687
 H    0.694716294246    2.042915368101   -2.151641114687
 C    1.164431294246    0.002365368101   -2.151641114687
 H    2.250560294246    0.002365368101   -2.151641114687
CL   -0.025134969387   -0.004670370176    4.248370682285
