11

 C   -0.967136688484   -0.689171619351   -2.185260387942
 H   -1.787393688484   -1.401469619351   -2.185260387942
 C   -0.967136688484    0.693902380649   -2.185260387942
 H   -1.787393688484    1.406200380649   -2.185260387942
 N    0.358897311516   -1.076754619351   -2.185260387942
 H    0.694716311516   -2.038184619351   -2.185260387942
 N    0.358897311516    1.081485380649   -2.185260387942
 H    0.694716311516    2.042915380649   -2.185260387942
 C    1.164431311516    0.002365380649   -2.185260387942
 H    2.250560311516    0.002365380649   -2.185260387942
CL   -0.025135003485   -0.004670394953    4.314751238914
