11

 C   -0.967136626475   -0.689171574292   -2.319737496066
 H   -1.787393626475   -1.401469574292   -2.319737496066
 C   -0.967136626475    0.693902425708   -2.319737496066
 H   -1.787393626475    1.406200425708   -2.319737496066
 N    0.358897373525   -1.076754574292   -2.319737496066
 H    0.694716373525   -2.038184574292   -2.319737496066
 N    0.358897373525    1.081485425708   -2.319737496066
 H    0.694716373525    2.042915425708   -2.319737496066
 C    1.164431373525    0.002365425708   -2.319737496066
 H    2.250560373525    0.002365425708   -2.319737496066
CL   -0.025135125922   -0.004670483921    4.580273495247
