11

 C   -0.967136612549   -0.689171564173   -2.353356776588
 H   -1.787393612549   -1.401469564173   -2.353356776588
 C   -0.967136612549    0.693902435827   -2.353356776588
 H   -1.787393612549    1.406200435827   -2.353356776588
 N    0.358897387451   -1.076754564173   -2.353356776588
 H    0.694716387451   -2.038184564173   -2.353356776588
 N    0.358897387451    1.081485435827   -2.353356776588
 H    0.694716387451    2.042915435827   -2.353356776588
 C    1.164431387451    0.002365435827   -2.353356776588
 H    2.250560387451    0.002365435827   -2.353356776588
CL   -0.025135153417   -0.004670503901    4.646654066224
