11

 C   -0.967136550811   -0.689171519311   -2.521453197654
 H   -1.787393550811   -1.401469519311   -2.521453197654
 C   -0.967136550811    0.693902480689   -2.521453197654
 H   -1.787393550811    1.406200480689   -2.521453197654
 N    0.358897449189   -1.076754519311   -2.521453197654
 H    0.694716449189   -2.038184519311   -2.521453197654
 N    0.358897449189    1.081485480689   -2.521453197654
 H    0.694716449189    2.042915480689   -2.521453197654
 C    1.164431449189    0.002365480689   -2.521453197654
 H    2.250560449189    0.002365480689   -2.521453197654
CL   -0.025135275318   -0.004670592480    4.978556957548
