11

 C   -0.967136490875   -0.689171475759   -2.723168938092
 H   -1.787393490875   -1.401469475759   -2.723168938092
 C   -0.967136490875    0.693902524241   -2.723168938092
 H   -1.787393490875    1.406200524241   -2.723168938092
 N    0.358897509125   -1.076754475759   -2.723168938092
 H    0.694716509125   -2.038184475759   -2.723168938092
 N    0.358897509125    1.081485524241   -2.723168938092
 H    0.694716509125    2.042915524241   -2.723168938092
 C    1.164431509125    0.002365524241   -2.723168938092
 H    2.250560509125    0.002365524241   -2.723168938092
CL   -0.025135393660   -0.004670678473    5.376840496555
