11

 C   -0.967136473651   -0.689171463243   -2.790407525543
 H   -1.787393473651   -1.401469463243   -2.790407525543
 C   -0.967136473651    0.693902536757   -2.790407525543
 H   -1.787393473651    1.406200536757   -2.790407525543
 N    0.358897526349   -1.076754463243   -2.790407525543
 H    0.694716526349   -2.038184463243   -2.790407525543
 N    0.358897526349    1.081485536757   -2.790407525543
 H    0.694716526349    2.042915536757   -2.790407525543
 C    1.164431526349    0.002365536757   -2.790407525543
 H    2.250560526349    0.002365536757   -2.790407525543
CL   -0.025135427669   -0.004670703185    5.509601690648
