11

 C   -0.967136457599   -0.689171451578   -2.857646116252
 H   -1.787393457599   -1.401469451578   -2.857646116252
 C   -0.967136457599    0.693902548422   -2.857646116252
 H   -1.787393457599    1.406200548422   -2.857646116252
 N    0.358897542401   -1.076754451578   -2.857646116252
 H    0.694716542401   -2.038184451578   -2.857646116252
 N    0.358897542401    1.081485548422   -2.857646116252
 H    0.694716542401    2.042915548422   -2.857646116252
 C    1.164431542401    0.002365548422   -2.857646116252
 H    2.250560542401    0.002365548422   -2.857646116252
CL   -0.025135459364   -0.004670726216    5.642362891173
