11

 C   -0.967136449979   -0.689171446042   -2.891265412762
 H   -1.787393449979   -1.401469446042   -2.891265412762
 C   -0.967136449979    0.693902553958   -2.891265412762
 H   -1.787393449979    1.406200553958   -2.891265412762
 N    0.358897550021   -1.076754446042   -2.891265412762
 H    0.694716550021   -2.038184446042   -2.891265412762
 N    0.358897550021    1.081485553958   -2.891265412762
 H    0.694716550021    2.042915553958   -2.891265412762
 C    1.164431550021    0.002365553958   -2.891265412762
 H    2.250560550021    0.002365553958   -2.891265412762
CL   -0.025135474409   -0.004670737148    5.708743493719
