11

 C   -0.967136435494   -0.689171435516   -2.958504007974
 H   -1.787393435494   -1.401469435516   -2.958504007974
 C   -0.967136435494    0.693902564484   -2.958504007974
 H   -1.787393435494    1.406200564484   -2.958504007974
 N    0.358897564506   -1.076754435516   -2.958504007974
 H    0.694716564506   -2.038184435516   -2.958504007974
 N    0.358897564506    1.081485564484   -2.958504007974
 H    0.694716564506    2.042915564484   -2.958504007974
 C    1.164431564506    0.002365564484   -2.958504007974
 H    2.250560564506    0.002365564484   -2.958504007974
CL   -0.025135503009   -0.004670757931    5.841504703135
