11

 C   -0.967136428606   -0.689171430512   -2.992123306629
 H   -1.787393428606   -1.401469430512   -2.992123306629
 C   -0.967136428606    0.693902569488   -2.992123306629
 H   -1.787393428606    1.406200569488   -2.992123306629
 N    0.358897571394   -1.076754430512   -2.992123306629
 H    0.694716571394   -2.038184430512   -2.992123306629
 N    0.358897571394    1.081485569488   -2.992123306629
 H    0.694716571394    2.042915569488   -2.992123306629
 C    1.164431571394    0.002365569488   -2.992123306629
 H    2.250560571394    0.002365569488   -2.992123306629
CL   -0.025135516608   -0.004670767812    5.907885309915
