11

 C   -0.967136391655   -0.689171403661   -3.193839111954
 H   -1.787393391655   -1.401469403661   -3.193839111954
 C   -0.967136391655    0.693902596339   -3.193839111954
 H   -1.787393391655    1.406200596339   -3.193839111954
 N    0.358897608345   -1.076754403661   -3.193839111954
 H    0.694716608345   -2.038184403661   -3.193839111954
 N    0.358897608345    1.081485596339   -3.193839111954
 H    0.694716608345    2.042915596339   -3.193839111954
 C    1.164431608345    0.002365596339   -3.193839111954
 H    2.250560608345    0.002365596339   -3.193839111954
CL   -0.025135589568   -0.004670820828    6.306168977041
