11

 C   -0.967136386148   -0.689171399659   -3.227458414899
 H   -1.787393386148   -1.401469399659   -3.227458414899
 C   -0.967136386148    0.693902600341   -3.227458414899
 H   -1.787393386148    1.406200600341   -3.227458414899
 N    0.358897613852   -1.076754399659   -3.227458414899
 H    0.694716613852   -2.038184399659   -3.227458414899
 N    0.358897613852    1.081485600341   -3.227458414899
 H    0.694716613852    2.042915600341   -3.227458414899
 C    1.164431613852    0.002365600341   -3.227458414899
 H    2.250560613852    0.002365600341   -3.227458414899
CL   -0.025135600442   -0.004670828730    6.372549592291
