11

 C   -0.967136375625   -0.689171392013   -3.294697022401
 H   -1.787393375625   -1.401469392013   -3.294697022401
 C   -0.967136375625    0.693902607987   -3.294697022401
 H   -1.787393375625    1.406200607987   -3.294697022401
 N    0.358897624375   -1.076754392013   -3.294697022401
 H    0.694716624375   -2.038184392013   -3.294697022401
 N    0.358897624375    1.081485607987   -3.294697022401
 H    0.694716624375    2.042915607987   -3.294697022401
 C    1.164431624375    0.002365607987   -3.294697022401
 H    2.250560624375    0.002365607987   -3.294697022401
CL   -0.025135621220   -0.004670843828    6.505310825975
