17

 N   -2.057724892593   -0.511350427013   -0.002496706790
 C   -0.847536825749    0.143855776663    0.001464917178
 N    0.385875588554   -0.454821917799    0.013503202083
 C    1.356298788610    0.435354223812    0.001630745110
 N    1.153221951197    1.796992357326   -0.005204415232
 H    1.957049076448    2.416952897081   -0.087192437654
 N    2.681753542847    0.016679502132   -0.076716558125
 H    3.336289748179    0.548482726532    0.490924218605
 H    2.760558630238   -0.984020641803    0.084866779864
 C   -0.106051791120    2.483026060857    0.007749371445
 O   -0.133632160225    3.711199145634    0.003661243017
 C   -1.178836917096    1.509332671583    0.013950569385
 N   -2.549910218865    1.695663716896    0.013875384669
 C   -3.043433713376    0.457060702851    0.003545285004
 H   -4.100931626644    0.202914081019    0.000598640578
 H   -2.182821889124   -1.517933512245   -0.011156257821
RB    0.607740464129   -1.837054433020   -0.000962303475
