17

 N   -2.063427689645   -0.475821632772   -0.002124886590
 C   -0.853239622801    0.179384570904    0.001836737378
 N    0.380172791502   -0.419293123558    0.013875022283
 C    1.350595991558    0.470883018053    0.002002565310
 N    1.147519154145    1.832521151567   -0.004832595032
 H    1.951346279396    2.452481691322   -0.086820617454
 N    2.676050745795    0.052208296373   -0.076344737925
 H    3.330586951127    0.584011520773    0.491296038805
 H    2.754855833186   -0.948491847562    0.085238600064
 C   -0.111754588172    2.518554855098    0.008121191645
 O   -0.139334957277    3.746727939875    0.004033063217
 C   -1.184539714148    1.544861465824    0.014322389585
 N   -2.555613015917    1.731192511137    0.014247204869
 C   -3.049136510428    0.492589497092    0.003917105204
 H   -4.106634423696    0.238442875260    0.000970460778
 H   -2.188524686176   -1.482404718004   -0.010784437621
RB    0.617885158189   -1.900256532724   -0.001623733672
