17

 N   -2.548165439096    2.544125877675    0.029479830430
 C   -1.337977372252    3.199332081351    0.033441454398
 N   -0.104564957949    2.600654386889    0.045479739303
 C    0.865858242107    3.490830528500    0.033607282330
 N    0.662781404694    4.852468662014    0.026772121988
 H    1.466608529945    5.472429201769   -0.055215900434
 N    2.191312996344    3.072155806820   -0.044740020905
 H    2.845849201676    3.603959031220    0.522900755825
 H    2.270118083735    2.071455662885    0.116843317084
 C   -0.596492337623    5.538502365545    0.039725908665
 O   -0.624072706728    6.766675450322    0.035637780237
 C   -1.669277463599    4.564808976271    0.045927106605
 N   -3.040350765368    4.751140021584    0.045851921889
 C   -3.533874259879    3.512537007539    0.035521822224
 H   -4.591372173147    3.258390385707    0.032575177798
 H   -2.673262435627    1.537542792443    0.020820279399
RB    1.480184153297   -7.272435007549   -0.057845300401
