17

 N   -2.109050066064   -0.191591278848    0.000849675012
 C   -0.898861999220    0.463614924828    0.004811298980
 N    0.334550415083   -0.135062769634    0.016849583885
 C    1.304973615139    0.755113371977    0.004977126912
 N    1.101896777726    2.116751505491   -0.001858033430
 H    1.905723902977    2.736712045246   -0.083846055852
 N    2.630428369376    0.336438650297   -0.073370176323
 H    3.284964574708    0.868241874697    0.494270600407
 H    2.709233456767   -0.664261493638    0.088213161666
 C   -0.157376964591    2.802785209022    0.011095753247
 O   -0.184957333696    4.030958293799    0.007007624819
 C   -1.230162090567    1.829091819748    0.017296951187
 N   -2.601235392336    2.015422865061    0.017221766471
 C   -3.094758886847    0.776819851016    0.006891666806
 H   -4.152256800115    0.522673229184    0.003945022380
 H   -2.234147062595   -1.198174364080   -0.007809876019
RB    0.699042710670   -2.405873330355   -0.006915175247
