17

 N   -2.114752863116   -0.156062484607    0.001221495213
 C   -0.904564796272    0.499143719069    0.005183119181
 N    0.328847618031   -0.099533975393    0.017221404086
 C    1.299270818087    0.790642166218    0.005348947113
 N    1.096193980674    2.152280299732   -0.001486213229
 H    1.900021105925    2.772240839487   -0.083474235651
 N    2.624725572324    0.371967444538   -0.072998356122
 H    3.279261777656    0.903770668938    0.494642420608
 H    2.703530659715   -0.628732699397    0.088584981867
 C   -0.163079761643    2.838314003263    0.011467573448
 O   -0.190660130748    4.066487088040    0.007379445020
 C   -1.235864887619    1.864620613989    0.017668771388
 N   -2.606938189388    2.050951659302    0.017593586672
 C   -3.100461683899    0.812348645257    0.007263487007
 H   -4.157959597167    0.558202023425    0.004316842581
 H   -2.239849859647   -1.162645569839   -0.007438055818
RB    0.709187404730   -2.469075430059   -0.007576605443
