17

 N   -2.126158457221   -0.085004896126    0.001965135613
 C   -0.915970390377    0.570201307550    0.005926759581
 N    0.317442023926   -0.028476386912    0.017965044486
 C    1.287865223982    0.861699754699    0.006092587513
 N    1.084788386569    2.223337888213   -0.000742572829
 H    1.888615511820    2.843298427968   -0.082730595251
 N    2.613319978219    0.443025033019   -0.072254715722
 H    3.267856183551    0.974828257419    0.495386061008
 H    2.692125065610   -0.557675110916    0.089328622267
 C   -0.174485355748    2.909371591744    0.012211213848
 O   -0.202065724853    4.137544676521    0.008123085420
 C   -1.247270481724    1.935678202470    0.018412411788
 N   -2.618343783493    2.122009247783    0.018337227072
 C   -3.111867278004    0.883406233738    0.008007127407
 H   -4.169365191272    0.629259611906    0.005060482981
 H   -2.251255453752   -1.091587981358   -0.006694415418
RB    0.729476792850   -2.595479629466   -0.008899465837
