17

 N   -2.154672442483    0.092639075077    0.003824236614
 C   -0.944484375639    0.747845278753    0.007785860582
 N    0.288928038664    0.149167584291    0.019824145487
 C    1.259351238720    1.039343725902    0.007951688514
 N    1.056274401307    2.400981859416    0.001116528172
 H    1.860101526558    3.020942399171   -0.080871494250
 N    2.584805992957    0.620669004222   -0.070395614721
 H    3.239342198289    1.152472228622    0.497245162009
 H    2.663611080348   -0.380031139713    0.091187723268
 C   -0.202999341010    3.087015562947    0.014070314849
 O   -0.230579710115    4.315188647724    0.009982186421
 C   -1.275784466986    2.113322173673    0.020271512789
 N   -2.646857768755    2.299653218986    0.020196328073
 C   -3.140381263266    1.061050204941    0.009866228408
 H   -4.197879176534    0.806903583109    0.006919583982
 H   -2.279769439014   -0.913944010155   -0.004835314417
RB    0.780200263150   -2.911490127985   -0.012206616821
