17

 N   -2.177483630692    0.234754252039    0.005311517415
 C   -0.967295563848    0.889960455715    0.009273141383
 N    0.266116850455    0.291282761253    0.021311426288
 C    1.236540050511    1.181458902864    0.009438969315
 N    1.033463213098    2.543097036378    0.002603808973
 H    1.837290338349    3.163057576133   -0.079384213449
 N    2.561994804748    0.762784181184   -0.068908333920
 H    3.216531010080    1.294587405584    0.498732442810
 H    2.640799892139   -0.237915962751    0.092675004069
 C   -0.225810529219    3.229130739909    0.015557595650
 O   -0.253390898324    4.457303824686    0.011469467222
 C   -1.298595655195    2.255437350635    0.021758793590
 N   -2.669668956964    2.441768395948    0.021683608874
 C   -3.163192451475    1.203165381903    0.011353509209
 H   -4.220690364743    0.949018760071    0.008406864783
 H   -2.302580627223   -0.771828833193   -0.003348033616
RB    0.820779039391   -3.164298526801   -0.014852337608
