17

 N   -2.200294818902    0.376869429001    0.006798798216
 C   -0.990106752058    1.032075632677    0.010760422184
 N    0.243305662245    0.433397938215    0.022798707089
 C    1.213728862301    1.323574079826    0.010926250116
 N    1.010652024888    2.685212213340    0.004091089774
 H    1.814479150139    3.305172753095   -0.077896932648
 N    2.539183616538    0.904899358146   -0.067421053119
 H    3.193719821870    1.436702582546    0.500219723611
 H    2.617988703929   -0.095800785789    0.094162284870
 C   -0.248621717429    3.371245916871    0.017044876451
 O   -0.276202086534    4.599419001648    0.012956748023
 C   -1.321406843405    2.397552527597    0.023246074391
 N   -2.692480145174    2.583883572910    0.023170889675
 C   -3.186003639685    1.345280558865    0.012840790010
 H   -4.243501552953    1.091133937033    0.009894145584
 H   -2.325391815433   -0.629713656231   -0.001860752815
RB    0.861357815631   -3.417106925616   -0.017498058396
