17

 N   -2.211700413007    0.447927017482    0.007542438616
 C   -1.001512346163    1.103133221158    0.011504062584
 N    0.231900068140    0.504455526696    0.023542347489
 C    1.202323268196    1.394631668307    0.011669890516
 N    0.999246430783    2.756269801821    0.004834730174
 H    1.803073556034    3.376230341576   -0.077153292248
 N    2.527778022433    0.975956946627   -0.066677412719
 H    3.182314227765    1.507760171027    0.500963364011
 H    2.606583109824   -0.024743197308    0.094905925270
 C   -0.260027311534    3.442303505352    0.017788516851
 O   -0.287607680639    4.670476590129    0.013700388423
 C   -1.332812437510    2.468610116078    0.023989714791
 N   -2.703885739279    2.654941161391    0.023914530075
 C   -3.197409233790    1.416338147346    0.013584430410
 H   -4.254907147058    1.162191525514    0.010637785984
 H   -2.336797409538   -0.558656067750   -0.001117112415
RB    0.881647203751   -3.543511125024   -0.018820918789
