17

 N   -2.223106007111    0.518984605963    0.008286079017
 C   -1.012917940267    1.174190809639    0.012247702985
 N    0.220494474036    0.575513115177    0.024285987890
 C    1.190917674092    1.465689256788    0.012413530917
 N    0.987840836679    2.827327390302    0.005578370575
 H    1.791667961930    3.447287930057   -0.076409651847
 N    2.516372428329    1.047014535108   -0.065933772318
 H    3.170908633661    1.578817759508    0.501707004412
 H    2.595177515720    0.046314391173    0.095649565671
 C   -0.271432905638    3.513361093833    0.018532157252
 O   -0.299013274743    4.741534178610    0.014444028824
 C   -1.344218031614    2.539667704559    0.024733355192
 N   -2.715291333383    2.725998749872    0.024658170476
 C   -3.208814827894    1.487395735827    0.014328070811
 H   -4.266312741162    1.233249113995    0.011381426385
 H   -2.348203003642   -0.487598479269   -0.000373472014
RB    0.901936591871   -3.669915324431   -0.020143779183
