17

 N   -2.245917195321    0.661099782926    0.009773359818
 C   -1.035729128477    1.316305986602    0.013734983786
 N    0.197683285826    0.717628292140    0.025773268691
 C    1.168106485882    1.607804433751    0.013900811718
 N    0.965029648469    2.969442567265    0.007065651376
 H    1.768856773720    3.589403107020   -0.074922371046
 N    2.493561240119    1.189129712071   -0.064446491517
 H    3.148097445451    1.720932936471    0.503194285213
 H    2.572366327510    0.188429568136    0.097136846472
 C   -0.294244093848    3.655476270796    0.020019438053
 O   -0.321824462953    4.883649355573    0.015931309625
 C   -1.367029219824    2.681782881522    0.026220635993
 N   -2.738102521593    2.868113926835    0.026145451277
 C   -3.231626016104    1.629510912790    0.015815351612
 H   -4.289123929372    1.375364290958    0.012868707186
 H   -2.371014191852   -0.345483302306    0.001113808787
RB    0.942515368112   -3.922723723247   -0.022789499970
