17

 N   -2.251619992373    0.696628577166    0.010145180018
 C   -1.041431925529    1.351834780842    0.014106803986
 N    0.191980488774    0.753157086380    0.026145088891
 C    1.162403688830    1.643333227991    0.014272631918
 N    0.959326851417    3.004971361505    0.007437471576
 H    1.763153976668    3.624931901260   -0.074550550846
 N    2.487858443067    1.224658506311   -0.064074671317
 H    3.142394648399    1.756461730711    0.503566105413
 H    2.566663530458    0.223958362376    0.097508666672
 C   -0.299946890900    3.691005065036    0.020391258253
 O   -0.327527260005    4.919178149813    0.016303129825
 C   -1.372732016876    2.717311675762    0.026592456193
 N   -2.743805318645    2.903642721075    0.026517271477
 C   -3.237328813156    1.665039707030    0.016187171812
 H   -4.294826726424    1.410893085198    0.013240527386
 H   -2.376716988904   -0.309954508066    0.001485628987
RB    0.952660062172   -3.985925822950   -0.023450930167
