17

 N   -2.268728383530    0.803214959888    0.011260640619
 C   -1.058540316686    1.458421163564    0.015222264587
 N    0.174872097617    0.859743469102    0.027260549492
 C    1.145295297673    1.749919610713    0.015388092519
 N    0.942218460260    3.111557744227    0.008552932177
 H    1.746045585511    3.731518283982   -0.073435090245
 N    2.470750051910    1.331244889033   -0.062959210716
 H    3.125286257242    1.863048113433    0.504681566014
 H    2.549555139301    0.330544745098    0.098624127273
 C   -0.317055282057    3.797591447758    0.021506718854
 O   -0.344635651162    5.025764532535    0.017418590426
 C   -1.389840408033    2.823898058484    0.027707916794
 N   -2.760913709802    3.010229103797    0.027632732078
 C   -3.254437204313    1.771626089752    0.017302632413
 H   -4.311935117581    1.517479467920    0.014355987987
 H   -2.393825380061   -0.203368125344    0.002601089588
RB    0.983094144352   -4.175532122062   -0.025435220757
