17

 N   -2.280133977635    0.874272548369    0.012004281019
 C   -1.069945910791    1.529478752045    0.015965904987
 N    0.163466503512    0.930801057583    0.028004189892
 C    1.133889703568    1.820977199194    0.016131732919
 N    0.930812866155    3.182615332708    0.009296572577
 H    1.734639991406    3.802575872463   -0.072691449845
 N    2.459344457805    1.402302477514   -0.062215570316
 H    3.113880663137    1.934105701914    0.505425206414
 H    2.538149545196    0.401602333579    0.099367767673
 C   -0.328460876162    3.868649036239    0.022250359254
 O   -0.356041245267    5.096822121016    0.018162230826
 C   -1.401246002138    2.894955646965    0.028451557194
 N   -2.772319303907    3.081286692278    0.028376372478
 C   -3.265842798418    1.842683678233    0.018046272813
 H   -4.323340711686    1.588537056401    0.015099628387
 H   -2.405230974166   -0.132310536863    0.003344729988
RB    1.003383532472   -4.301936321469   -0.026758081151
