17

 N   -2.308647962897    1.051916519572    0.013863382020
 C   -1.098459896053    1.707122723248    0.017825005988
 N    0.134952518250    1.108445028786    0.029863290893
 C    1.105375718306    1.998621170397    0.017990833920
 N    0.902298880893    3.360259303911    0.011155673578
 H    1.706126006144    3.980219843666   -0.070832348844
 N    2.430830472543    1.579946448717   -0.060356469315
 H    3.085366677875    2.111749673117    0.507284307415
 H    2.509635559934    0.579246304782    0.101226868674
 C   -0.356974861424    4.046293007442    0.024109460255
 O   -0.384555230529    5.274466092219    0.020021331827
 C   -1.429759987400    3.072599618168    0.030310658195
 N   -2.800833289169    3.258930663481    0.030235473479
 C   -3.294356783680    2.020327649436    0.019905373814
 H   -4.351854696948    1.766181027604    0.016958729388
 H   -2.433744959428    0.045333434340    0.005203830989
RB    1.054107002773   -4.617946819989   -0.030065232135
