17

 N   -2.325756354054    1.158502902294    0.014978842621
 C   -1.115568287210    1.813709105970    0.018940466589
 N    0.117844127093    1.215031411508    0.030978751494
 C    1.088267327149    2.105207553119    0.019106294521
 N    0.885190489736    3.466845686633    0.012271134179
 H    1.689017614987    4.086806226388   -0.069716888243
 N    2.413722081386    1.686532831439   -0.059241008714
 H    3.068258286718    2.218336055839    0.508399768016
 H    2.492527168777    0.685832687504    0.102342329275
 C   -0.374083252581    4.152879390164    0.025224920856
 O   -0.401663621686    5.381052474941    0.021136792428
 C   -1.446868378557    3.179186000890    0.031426118796
 N   -2.817941680326    3.365517046203    0.031350934080
 C   -3.311465174837    2.126914032158    0.021020834415
 H   -4.368963088105    1.872767410326    0.018074189989
 H   -2.450853350585    0.151919817062    0.006319291590
RB    1.084541084953   -4.807553119100   -0.032049522725
