17

 N   -2.365675933420    1.407204461977    0.017581584023
 C   -1.155487866576    2.062410665653    0.021543207991
 N    0.077924547727    1.463732971191    0.033581492896
 C    1.048347747783    2.353909112802    0.021709035923
 N    0.845270910370    3.715547246316    0.014873875581
 H    1.649098035621    4.335507786071   -0.067114146841
 N    2.373802502020    1.935234391122   -0.056638267312
 H    3.028338707352    2.467037615522    0.511002509418
 H    2.452607589411    0.934534247187    0.104945070677
 C   -0.414002831947    4.401580949847    0.027827662258
 O   -0.441583201052    5.629754034624    0.023739533830
 C   -1.486787957923    3.427887560573    0.034028860198
 N   -2.857861259692    3.614218605886    0.033953675482
 C   -3.351384754203    2.375615591841    0.023623575817
 H   -4.408882667471    2.121468970009    0.020676931391
 H   -2.490772929951    0.400621376745    0.008922032992
RB    1.155553943374   -5.249967817027   -0.036679534103
