17

 N   -2.371378730473    1.442733256218    0.017953404223
 C   -1.161190663629    2.097939459894    0.021915028191
 N    0.072221750674    1.499261765432    0.033953313096
 C    1.042644950730    2.389437907043    0.022080856123
 N    0.839568113317    3.751076040557    0.015245695781
 H    1.643395238568    4.371036580312   -0.066742326641
 N    2.368099704967    1.970763185363   -0.056266447112
 H    3.022635910299    2.502566409763    0.511374329618
 H    2.446904792358    0.970063041428    0.105316890877
 C   -0.419705629000    4.437109744088    0.028199482458
 O   -0.447285998105    5.665282828865    0.024111354030
 C   -1.492490754976    3.463416354814    0.034400680398
 N   -2.863564056745    3.649747400127    0.034325495682
 C   -3.357087551256    2.411144386082    0.023995396017
 H   -4.414585464524    2.156997764250    0.021048751591
 H   -2.496475727004    0.436150170986    0.009293853192
RB    1.165698637434   -5.313169916731   -0.037340964300
