17

 N   -2.399892715735    1.620377227421    0.019812505224
 C   -1.189704648891    2.275583431097    0.023774129192
 N    0.043707765412    1.676905736635    0.035812414097
 C    1.014130965468    2.567081878246    0.023939957124
 N    0.811054128055    3.928720011760    0.017104796782
 H    1.614881253306    4.548680551515   -0.064883225640
 N    2.339585719705    2.148407156566   -0.054407346111
 H    2.994121925037    2.680210380966    0.513233430619
 H    2.418390807096    1.147707012631    0.107175991878
 C   -0.448219614262    4.614753715291    0.030058583459
 O   -0.475799983367    5.842926800068    0.025970455031
 C   -1.521004740238    3.641060326017    0.036259781399
 N   -2.892078042007    3.827391371330    0.036184596683
 C   -3.385601536518    2.588788357285    0.025854497018
 H   -4.443099449786    2.334641735453    0.022907852592
 H   -2.524989712266    0.613794142189    0.011152954193
RB    1.216422107734   -5.629180415250   -0.040648115284
