17

 N   -2.405595512787    1.655906021661    0.020184325424
 C   -1.195407445943    2.311112225337    0.024145949392
 N    0.038004968360    1.712434530875    0.036184234297
 C    1.008428168416    2.602610672486    0.024311777324
 N    0.805351331003    3.964248806000    0.017476616982
 H    1.609178456254    4.584209345755   -0.064511405440
 N    2.333882922653    2.183935950806   -0.054035525911
 H    2.988419127985    2.715739175206    0.513605250819
 H    2.412688010044    1.183235806871    0.107547812078
 C   -0.453922411314    4.650282509531    0.030430403659
 O   -0.481502780419    5.878455594308    0.026342275231
 C   -1.526707537290    3.676589120257    0.036631601599
 N   -2.897780839059    3.862920165570    0.036556416883
 C   -3.391304333570    2.624317151525    0.026226317218
 H   -4.448802246838    2.370170529693    0.023279672792
 H   -2.530692509318    0.649322936429    0.011524774393
RB    1.226566801794   -5.692382514954   -0.041309545481
