17

 N   -2.428406700997    1.798021198624    0.021671606225
 C   -1.218218634153    2.453227402300    0.025633230193
 N    0.015193780150    1.854549707838    0.037671515098
 C    0.985616980206    2.744725849449    0.025799058125
 N    0.782540142793    4.106363982963    0.018963897783
 H    1.586367268044    4.726324522718   -0.063024124639
 N    2.311071734443    2.326051127769   -0.052548245110
 H    2.965607939775    2.857854352169    0.515092531620
 H    2.389876821834    1.325350983834    0.109035092879
 C   -0.476733599524    4.792397686494    0.031917684460
 O   -0.504313968629    6.020570771271    0.027829556032
 C   -1.549518725500    3.818704297220    0.038118882400
 N   -2.920592027269    4.005035342533    0.038043697684
 C   -3.414115521780    2.766432328488    0.027713598019
 H   -4.471613435048    2.512285706656    0.024766953593
 H   -2.553503697528    0.791438113392    0.013012055194
RB    1.267145578035   -5.945190913769   -0.043955266268
