17

 N   -2.439812295101    1.869078787105    0.022415246626
 C   -1.229624228257    2.524284990781    0.026376870594
 N    0.003788186046    1.925607296319    0.038415155499
 C    0.974211386102    2.815783437930    0.026542698526
 N    0.771134548689    4.177421571444    0.019707538184
 H    1.574961673940    4.797382111199   -0.062280484238
 N    2.299666140339    2.397108716250   -0.051804604709
 H    2.954202345671    2.928911940650    0.515836172021
 H    2.378471227730    1.396408572315    0.109778733280
 C   -0.488139193628    4.863455274975    0.032661324861
 O   -0.515719562733    6.091628359752    0.028573196433
 C   -1.560924319604    3.889761885701    0.038862522801
 N   -2.931997621373    4.076092931014    0.038787338085
 C   -3.425521115884    2.837489916969    0.028457238420
 H   -4.483019029152    2.583343295137    0.025510593994
 H   -2.564909291632    0.862495701873    0.013755695595
RB    1.287434966155   -6.071595113176   -0.045278126662
