17

 N   -2.445515092154    1.904607581345    0.022787066826
 C   -1.235327025310    2.559813785021    0.026748690794
 N   -0.001914611007    1.961136090559    0.038786975699
 C    0.968508589049    2.851312232170    0.026914518726
 N    0.765431751636    4.212950365684    0.020079358384
 H    1.569258876887    4.832910905439   -0.061908664038
 N    2.293963343286    2.432637510490   -0.051432784509
 H    2.948499548618    2.964440734890    0.516207992221
 H    2.372768430677    1.431937366555    0.110150553480
 C   -0.493841990681    4.898984069215    0.033033145061
 O   -0.521422359786    6.127157153992    0.028945016633
 C   -1.566627116657    3.925290679941    0.039234343001
 N   -2.937700418426    4.111621725254    0.039159158285
 C   -3.431223912937    2.873018711209    0.028829058620
 H   -4.488721826205    2.618872089377    0.025882414194
 H   -2.570612088685    0.898024496113    0.014127515795
RB    1.297579660215   -6.134797212880   -0.045939556858
