17

 N   -2.513948656782    2.330953112232    0.027248909229
 C   -1.303760589938    2.986159315908    0.031210533197
 N   -0.070348175635    2.387481621446    0.043248818102
 C    0.900075024421    3.277657763057    0.031376361129
 N    0.696998187008    4.639295896571    0.024541200787
 H    1.500825312259    5.259256436326   -0.057446821635
 N    2.225529778658    2.858983041377   -0.046970942106
 H    2.880065983990    3.390786265777    0.520669834624
 H    2.304334866049    1.858282897442    0.114612395883
 C   -0.562275555309    5.325329600102    0.037494987464
 O   -0.589855924414    6.553502684879    0.033406859036
 C   -1.635060681285    4.351636210828    0.043696185404
 N   -3.006133983054    4.537967256141    0.043621000688
 C   -3.499657477565    3.299364242096    0.033290901023
 H   -4.557155390833    3.045217620264    0.030344256597
 H   -2.639045653313    1.324370027000    0.018589358198
RB    1.419315988936   -6.893222409326   -0.053876719220
