17

 N   -2.531057047939    2.437539494954    0.028364369829
 C   -1.320868981095    3.092745698630    0.032325993797
 N   -0.087456566792    2.494068004168    0.044364278702
 C    0.882966633264    3.384244145779    0.032491821729
 N    0.679889795851    4.745882279293    0.025656661387
 H    1.483716921102    5.365842819048   -0.056331361035
 N    2.208421387501    2.965569424099   -0.045855481506
 H    2.862957592833    3.497372648499    0.521785295224
 H    2.287226474892    1.964869280164    0.115727856483
 C   -0.579383946466    5.431915982824    0.038610448064
 O   -0.606964315571    6.660089067601    0.034522319636
 C   -1.652169072442    4.458222593550    0.044811646004
 N   -3.023242374211    4.644553638863    0.044736461288
 C   -3.516765868722    3.405950624818    0.034406361623
 H   -4.574263781990    3.151804002986    0.031459717197
 H   -2.656154044470    1.430956409722    0.019704818798
RB    1.449750071116   -7.082828708438   -0.055861009811
