17

 N   -2.542462642044    2.508597083435    0.029108010230
 C   -1.332274575200    3.163803287111    0.033069634198
 N   -0.098862160897    2.565125592649    0.045107919103
 C    0.871561039159    3.455301734260    0.033235462130
 N    0.668484201746    4.816939867774    0.026400301788
 H    1.472311326997    5.436900407529   -0.055587720634
 N    2.197015793396    3.036627012580   -0.045111841105
 H    2.851551998728    3.568430236980    0.522528935625
 H    2.275820880787    2.035926868645    0.116471496884
 C   -0.590789540571    5.502973571305    0.039354088465
 O   -0.618369909676    6.731146656082    0.035265960037
 C   -1.663574666547    4.529280182031    0.045555286405
 N   -3.034647968316    4.715611227344    0.045480101689
 C   -3.528171462827    3.477008213299    0.035150002024
 H   -4.585669376095    3.222861591467    0.032203357598
 H   -2.667559638575    1.502013998203    0.020448459199
RB    1.470039459237   -7.209232907845   -0.057183870204
