14

 C    0.899737715489   -3.338316678703    0.000000000000
 H    0.907459715489   -4.431491678703    0.000000000000
 C    2.110213715489   -2.618477678703    0.000000000000
 H    3.065232715489   -3.152176678703    0.000000000000
 C   -0.320086284511   -2.638310678703    0.000000000000
 H   -1.268218284511   -3.184122678703    0.000000000000
 C    2.107805715489   -1.213332678703    0.000000000000
 H    3.039159715489   -0.640793678703    0.000000000000
 C   -0.333937284511   -1.230829678703    0.000000000000
 H   -1.285936284511   -0.688108678703    0.000000000000
 C    0.882339715489   -0.523047678703    0.000000000000
 O    0.942886715489    0.857413321297    0.000000000000
 H    0.039755715489    1.205840321297    0.000000000000
RB   -0.986516928849    1.601775239541    0.000000000000
