14

 C    0.944006489083   -3.355395525489    0.000000000000
 H    0.951728489083   -4.448570525489    0.000000000000
 C    2.154482489083   -2.635556525489    0.000000000000
 H    3.109501489083   -3.169255525489    0.000000000000
 C   -0.275817510917   -2.655389525489    0.000000000000
 H   -1.223949510917   -3.201201525489    0.000000000000
 C    2.152074489083   -1.230411525489    0.000000000000
 H    3.083428489083   -0.657872525489    0.000000000000
 C   -0.289668510917   -1.247908525489    0.000000000000
 H   -1.241667510917   -0.705187525489    0.000000000000
 C    0.926608489083   -0.540126525489    0.000000000000
 O    0.987155489083    0.840334474511    0.000000000000
 H    0.084024489083    1.188761474511    0.000000000000
RB   -1.035545668375    1.620690476231    0.000000000000
