14

 C    0.988275262678   -3.372474372276    0.000000000000
 H    0.995997262678   -4.465649372276    0.000000000000
 C    2.198751262678   -2.652635372276    0.000000000000
 H    3.153770262678   -3.186334372276    0.000000000000
 C   -0.231548737322   -2.672468372276    0.000000000000
 H   -1.179680737322   -3.218280372276    0.000000000000
 C    2.196343262678   -1.247490372276    0.000000000000
 H    3.127697262678   -0.674951372276    0.000000000000
 C   -0.245399737322   -1.264987372276    0.000000000000
 H   -1.197398737322   -0.722266372276    0.000000000000
 C    0.970877262678   -0.557205372276    0.000000000000
 O    1.031424262678    0.823255627724    0.000000000000
 H    0.128293262678    1.171682627724    0.000000000000
RB   -1.084574407902    1.639605712921    0.000000000000
