14

 C    1.209619130651   -3.457868606209    0.000000000000
 H    1.217341130651   -4.551043606209    0.000000000000
 C    2.420095130651   -2.738029606209    0.000000000000
 H    3.375114130651   -3.271728606209    0.000000000000
 C   -0.010204869349   -2.757862606209    0.000000000000
 H   -0.958336869349   -3.303674606209    0.000000000000
 C    2.417687130651   -1.332884606209    0.000000000000
 H    3.349041130651   -0.760345606209    0.000000000000
 C   -0.024055869349   -1.350381606209    0.000000000000
 H   -0.976054869349   -0.807660606209    0.000000000000
 C    1.192221130651   -0.642599606209    0.000000000000
 O    1.252768130651    0.737861393791    0.000000000000
 H    0.349637130651    1.086288393791    0.000000000000
RB   -1.329718105537    1.734181896372    0.000000000000
