14

 C    1.253887904246   -3.474947452996    0.000000000000
 H    1.261609904246   -4.568122452996    0.000000000000
 C    2.464363904246   -2.755108452996    0.000000000000
 H    3.419382904246   -3.288807452996    0.000000000000
 C    0.034063904246   -2.774941452996    0.000000000000
 H   -0.914068095754   -3.320753452996    0.000000000000
 C    2.461955904246   -1.349963452996    0.000000000000
 H    3.393309904246   -0.777424452996    0.000000000000
 C    0.020212904246   -1.367460452996    0.000000000000
 H   -0.931786095754   -0.824739452996    0.000000000000
 C    1.236489904246   -0.659678452996    0.000000000000
 O    1.297036904246    0.720782547004    0.000000000000
 H    0.393905904246    1.069209547004    0.000000000000
RB   -1.378746845064    1.753097133062    0.000000000000
