14

 C    4.839658565413   -4.858334042714    0.000000000000
 H    4.847380565413   -5.951509042714    0.000000000000
 C    6.050134565413   -4.138495042714    0.000000000000
 H    7.005153565413   -4.672194042714    0.000000000000
 C    3.619834565413   -4.158328042714    0.000000000000
 H    2.671702565413   -4.704140042714    0.000000000000
 C    6.047726565413   -2.733350042714    0.000000000000
 H    6.979080565413   -2.160811042714    0.000000000000
 C    3.605983565413   -2.750847042714    0.000000000000
 H    2.653984565413   -2.208126042714    0.000000000000
 C    4.822260565413   -2.043065042714    0.000000000000
 O    4.882807565413   -0.662604042714    0.000000000000
 H    3.979676565413   -0.314177042714    0.000000000000
RB   -5.350074746744    3.285231304958    0.000000000000
