14

 C    1.298156677841   -3.492026299783    0.000000000000
 H    1.305878677841   -4.585201299783    0.000000000000
 C    2.508632677841   -2.772187299783    0.000000000000
 H    3.463651677841   -3.305886299783    0.000000000000
 C    0.078332677841   -2.792020299783    0.000000000000
 H   -0.869799322159   -3.337832299783    0.000000000000
 C    2.506224677841   -1.367042299783    0.000000000000
 H    3.437578677841   -0.794503299783    0.000000000000
 C    0.064481677841   -1.384539299783    0.000000000000
 H   -0.887517322159   -0.841818299783    0.000000000000
 C    1.280758677841   -0.676757299783    0.000000000000
 O    1.341305677841    0.703703700217    0.000000000000
 H    0.438174677841    1.052130700217    0.000000000000
RB   -1.427775584591    1.772012369752    0.000000000000
