14

 C    1.386694225030   -3.526183993356    0.000000000000
 H    1.394416225030   -4.619358993356    0.000000000000
 C    2.597170225030   -2.806344993356    0.000000000000
 H    3.552189225030   -3.340043993356    0.000000000000
 C    0.166870225030   -2.826177993356    0.000000000000
 H   -0.781261774970   -3.371989993356    0.000000000000
 C    2.594762225030   -1.401199993356    0.000000000000
 H    3.526116225030   -0.828660993356    0.000000000000
 C    0.153019225030   -1.418696993356    0.000000000000
 H   -0.798979774970   -0.875975993356    0.000000000000
 C    1.369296225030   -0.710914993356    0.000000000000
 O    1.429843225030    0.669546006644    0.000000000000
 H    0.526712225030    1.017973006644    0.000000000000
RB   -1.525833063645    1.809842843132    0.000000000000
