14

 C    1.563769319409   -3.594499380502    0.000000000000
 H    1.571491319409   -4.687674380502    0.000000000000
 C    2.774245319409   -2.874660380502    0.000000000000
 H    3.729264319409   -3.408359380502    0.000000000000
 C    0.343945319409   -2.894493380502    0.000000000000
 H   -0.604186680591   -3.440305380502    0.000000000000
 C    2.771837319409   -1.469515380502    0.000000000000
 H    3.703191319409   -0.896976380502    0.000000000000
 C    0.330094319409   -1.487012380502    0.000000000000
 H   -0.621904680591   -0.944291380502    0.000000000000
 C    1.546371319409   -0.779230380502    0.000000000000
 O    1.606918319409    0.601230619498    0.000000000000
 H    0.703787319409    0.949657619498    0.000000000000
RB   -1.721948021752    1.885503789892    0.000000000000
