14

 C    1.652306866598   -3.628657074076    0.000000000000
 H    1.660028866598   -4.721832074076    0.000000000000
 C    2.862782866598   -2.908818074076    0.000000000000
 H    3.817801866598   -3.442517074076    0.000000000000
 C    0.432482866598   -2.928651074076    0.000000000000
 H   -0.515649133402   -3.474463074076    0.000000000000
 C    2.860374866598   -1.503673074076    0.000000000000
 H    3.791728866598   -0.931134074076    0.000000000000
 C    0.418631866598   -1.521170074076    0.000000000000
 H   -0.533367133402   -0.978449074076    0.000000000000
 C    1.634908866598   -0.813388074076    0.000000000000
 O    1.695455866598    0.567072925924    0.000000000000
 H    0.792324866598    0.915499925924    0.000000000000
RB   -1.820005500806    1.923334263272    0.000000000000
