14

 C    1.785113187382   -3.679893614436    0.000000000000
 H    1.792835187382   -4.773068614436    0.000000000000
 C    2.995589187382   -2.960054614436    0.000000000000
 H    3.950608187382   -3.493753614436    0.000000000000
 C    0.565289187382   -2.979887614436    0.000000000000
 H   -0.382842812618   -3.525699614436    0.000000000000
 C    2.993181187382   -1.554909614436    0.000000000000
 H    3.924535187382   -0.982370614436    0.000000000000
 C    0.551438187382   -1.572406614436    0.000000000000
 H   -0.400560812618   -1.029685614436    0.000000000000
 C    1.767715187382   -0.864624614436    0.000000000000
 O    1.828262187382    0.515836385564    0.000000000000
 H    0.925131187382    0.864263385564    0.000000000000
RB   -1.967091719387    1.980079973343    0.000000000000
