14

 C    1.829381960977   -3.696972461222    0.000000000000
 H    1.837103960977   -4.790147461222    0.000000000000
 C    3.039857960977   -2.977133461222    0.000000000000
 H    3.994876960977   -3.510832461222    0.000000000000
 C    0.609557960977   -2.996966461222    0.000000000000
 H   -0.338574039023   -3.542778461222    0.000000000000
 C    3.037449960977   -1.571988461222    0.000000000000
 H    3.968803960977   -0.999449461222    0.000000000000
 C    0.595706960977   -1.589485461222    0.000000000000
 H   -0.356292039023   -1.046764461222    0.000000000000
 C    1.811983960977   -0.881703461222    0.000000000000
 O    1.872530960977    0.498757538778    0.000000000000
 H    0.969399960977    0.847184538778    0.000000000000
RB   -2.016120458914    1.998995210033    0.000000000000
