14

 C    1.917919508166   -3.731130154796    0.000000000000
 H    1.925641508166   -4.824305154796    0.000000000000
 C    3.128395508166   -3.011291154796    0.000000000000
 H    4.083414508166   -3.544990154796    0.000000000000
 C    0.698095508166   -3.031124154796    0.000000000000
 H   -0.250036491834   -3.576936154796    0.000000000000
 C    3.125987508166   -1.606146154796    0.000000000000
 H    4.057341508166   -1.033607154796    0.000000000000
 C    0.684244508166   -1.623643154796    0.000000000000
 H   -0.267754491834   -1.080922154796    0.000000000000
 C    1.900521508166   -0.915861154796    0.000000000000
 O    1.961068508166    0.464599845204    0.000000000000
 H    1.057937508166    0.813026845204    0.000000000000
RB   -2.114177937968    2.036825683413    0.000000000000
