14

 C    1.962188281761   -3.748209001582    0.000000000000
 H    1.969910281761   -4.841384001582    0.000000000000
 C    3.172664281761   -3.028370001582    0.000000000000
 H    4.127683281761   -3.562069001582    0.000000000000
 C    0.742364281761   -3.048203001582    0.000000000000
 H   -0.205767718239   -3.594015001582    0.000000000000
 C    3.170256281761   -1.623225001582    0.000000000000
 H    4.101610281761   -1.050686001582    0.000000000000
 C    0.728513281761   -1.640722001582    0.000000000000
 H   -0.223485718239   -1.098001001582    0.000000000000
 C    1.944790281761   -0.932940001582    0.000000000000
 O    2.005337281761    0.447520998418    0.000000000000
 H    1.102206281761    0.795947998418    0.000000000000
RB   -2.163206677495    2.055740920103    0.000000000000
