14

 C    2.537682338491   -3.970234009809    0.000000000000
 H    2.545404338491   -5.063409009809    0.000000000000
 C    3.748158338491   -3.250395009809    0.000000000000
 H    4.703177338491   -3.784094009809    0.000000000000
 C    1.317858338491   -3.270228009809    0.000000000000
 H    0.369726338491   -3.816040009809    0.000000000000
 C    3.745750338491   -1.845250009809    0.000000000000
 H    4.677104338491   -1.272711009809    0.000000000000
 C    1.304007338491   -1.862747009809    0.000000000000
 H    0.352008338491   -1.320026009809    0.000000000000
 C    2.520284338491   -1.154965009809    0.000000000000
 O    2.580831338491    0.225495990191    0.000000000000
 H    1.677700338491    0.573922990191    0.000000000000
RB   -2.800580291345    2.301638997074    0.000000000000
