14

 C    2.581951112086   -3.987312856595    0.000000000000
 H    2.589673112086   -5.080487856595    0.000000000000
 C    3.792427112086   -3.267473856595    0.000000000000
 H    4.747446112086   -3.801172856595    0.000000000000
 C    1.362127112086   -3.287306856595    0.000000000000
 H    0.413995112086   -3.833118856595    0.000000000000
 C    3.790019112086   -1.862328856595    0.000000000000
 H    4.721373112086   -1.289789856595    0.000000000000
 C    1.348276112086   -1.879825856595    0.000000000000
 H    0.396277112086   -1.337104856595    0.000000000000
 C    2.564553112086   -1.172043856595    0.000000000000
 O    2.625100112086    0.208417143405    0.000000000000
 H    1.721969112086    0.556844143405    0.000000000000
RB   -2.849609030871    2.320554233764    0.000000000000
