14

 C    2.626219885681   -4.004391703382    0.000000000000
 H    2.633941885681   -5.097566703382    0.000000000000
 C    3.836695885681   -3.284552703382    0.000000000000
 H    4.791714885681   -3.818251703382    0.000000000000
 C    1.406395885681   -3.304385703382    0.000000000000
 H    0.458263885681   -3.850197703382    0.000000000000
 C    3.834287885681   -1.879407703382    0.000000000000
 H    4.765641885681   -1.306868703382    0.000000000000
 C    1.392544885681   -1.896904703382    0.000000000000
 H    0.440545885681   -1.354183703382    0.000000000000
 C    2.608821885681   -1.189122703382    0.000000000000
 O    2.669368885681    0.191338296618    0.000000000000
 H    1.766237885681    0.539765296618    0.000000000000
RB   -2.898637770398    2.339469470454    0.000000000000
