14

 C    2.714757432870   -4.038549396955    0.000000000000
 H    2.722479432870   -5.131724396955    0.000000000000
 C    3.925233432870   -3.318710396955    0.000000000000
 H    4.880252432870   -3.852409396955    0.000000000000
 C    1.494933432870   -3.338543396955    0.000000000000
 H    0.546801432870   -3.884355396955    0.000000000000
 C    3.922825432870   -1.913565396955    0.000000000000
 H    4.854179432870   -1.341026396955    0.000000000000
 C    1.481082432870   -1.931062396955    0.000000000000
 H    0.529083432870   -1.388341396955    0.000000000000
 C    2.697359432870   -1.223280396955    0.000000000000
 O    2.757906432870    0.157180603045    0.000000000000
 H    1.854775432870    0.505607603045    0.000000000000
RB   -2.996695249452    2.377299943834    0.000000000000
