14

 C    2.847563753654   -4.089785937315    0.000000000000
 H    2.855285753654   -5.182960937315    0.000000000000
 C    4.058039753654   -3.369946937315    0.000000000000
 H    5.013058753654   -3.903645937315    0.000000000000
 C    1.627739753654   -3.389779937315    0.000000000000
 H    0.679607753654   -3.935591937315    0.000000000000
 C    4.055631753654   -1.964801937315    0.000000000000
 H    4.986985753654   -1.392262937315    0.000000000000
 C    1.613888753654   -1.982298937315    0.000000000000
 H    0.661889753654   -1.439577937315    0.000000000000
 C    2.830165753654   -1.274516937315    0.000000000000
 O    2.890712753654    0.105944062685    0.000000000000
 H    1.987581753654    0.454371062685    0.000000000000
RB   -3.143781468033    2.434045653904    0.000000000000
