14

 C    2.936101300843   -4.123943630888    0.000000000000
 H    2.943823300843   -5.217118630888    0.000000000000
 C    4.146577300843   -3.404104630888    0.000000000000
 H    5.101596300843   -3.937803630888    0.000000000000
 C    1.716277300843   -3.423937630888    0.000000000000
 H    0.768145300843   -3.969749630888    0.000000000000
 C    4.144169300843   -1.998959630888    0.000000000000
 H    5.075523300843   -1.426420630888    0.000000000000
 C    1.702426300843   -2.016456630888    0.000000000000
 H    0.750427300843   -1.473735630888    0.000000000000
 C    2.918703300843   -1.308674630888    0.000000000000
 O    2.979250300843    0.071786369112    0.000000000000
 H    2.076119300843    0.420213369112    0.000000000000
RB   -3.241838947087    2.471876127285    0.000000000000
