14

 C    3.024638848032   -4.158101324462    0.000000000000
 H    3.032360848032   -5.251276324462    0.000000000000
 C    4.235114848032   -3.438262324462    0.000000000000
 H    5.190133848032   -3.971961324462    0.000000000000
 C    1.804814848032   -3.458095324462    0.000000000000
 H    0.856682848032   -4.003907324462    0.000000000000
 C    4.232706848032   -2.033117324462    0.000000000000
 H    5.164060848032   -1.460578324462    0.000000000000
 C    1.790963848032   -2.050614324462    0.000000000000
 H    0.838964848032   -1.507893324462    0.000000000000
 C    3.007240848032   -1.342832324462    0.000000000000
 O    3.067787848032    0.037628675538    0.000000000000
 H    2.164656848032    0.386055675538    0.000000000000
RB   -3.339896426141    2.509706600665    0.000000000000
