14

 C    3.113176395222   -4.192259018035    0.000000000000
 H    3.120898395222   -5.285434018035    0.000000000000
 C    4.323652395222   -3.472420018035    0.000000000000
 H    5.278671395222   -4.006119018035    0.000000000000
 C    1.893352395222   -3.492253018035    0.000000000000
 H    0.945220395222   -4.038065018035    0.000000000000
 C    4.321244395222   -2.067275018035    0.000000000000
 H    5.252598395222   -1.494736018035    0.000000000000
 C    1.879501395222   -2.084772018035    0.000000000000
 H    0.927502395222   -1.542051018035    0.000000000000
 C    3.095778395222   -1.376990018035    0.000000000000
 O    3.156325395222    0.003470981965    0.000000000000
 H    2.253194395222    0.351897981965    0.000000000000
RB   -3.437953905195    2.547537074045    0.000000000000
