14

 C    3.290251489600   -4.260574405181    0.000000000000
 H    3.297973489600   -5.353749405181    0.000000000000
 C    4.500727489600   -3.540735405181    0.000000000000
 H    5.455746489600   -4.074434405181    0.000000000000
 C    2.070427489600   -3.560568405181    0.000000000000
 H    1.122295489600   -4.106380405181    0.000000000000
 C    4.498319489600   -2.135590405181    0.000000000000
 H    5.429673489600   -1.563051405181    0.000000000000
 C    2.056576489600   -2.153087405181    0.000000000000
 H    1.104577489600   -1.610366405181    0.000000000000
 C    3.272853489600   -1.445305405181    0.000000000000
 O    3.333400489600   -0.064844405181    0.000000000000
 H    2.430269489600    0.283582594819    0.000000000000
RB   -3.634068863302    2.623198020805    0.000000000000
