14

 C    3.555864131168   -4.363047485901    0.000000000000
 H    3.563586131168   -5.456222485901    0.000000000000
 C    4.766340131168   -3.643208485901    0.000000000000
 H    5.721359131168   -4.176907485901    0.000000000000
 C    2.336040131168   -3.663041485901    0.000000000000
 H    1.387908131168   -4.208853485901    0.000000000000
 C    4.763932131168   -2.238063485901    0.000000000000
 H    5.695286131168   -1.665524485901    0.000000000000
 C    2.322189131168   -2.255560485901    0.000000000000
 H    1.370190131168   -1.712839485901    0.000000000000
 C    3.538466131168   -1.547778485901    0.000000000000
 O    3.599013131168   -0.167317485901    0.000000000000
 H    2.695882131168    0.181109514099    0.000000000000
RB   -3.928241300464    2.736689440946    0.000000000000
