14

 C    3.644401678358   -4.397205179475    0.000000000000
 H    3.652123678358   -5.490380179475    0.000000000000
 C    4.854877678358   -3.677366179475    0.000000000000
 H    5.809896678358   -4.211065179475    0.000000000000
 C    2.424577678358   -3.697199179475    0.000000000000
 H    1.476445678358   -4.243011179475    0.000000000000
 C    4.852469678358   -2.272221179475    0.000000000000
 H    5.783823678358   -1.699682179475    0.000000000000
 C    2.410726678358   -2.289718179475    0.000000000000
 H    1.458727678358   -1.746997179475    0.000000000000
 C    3.627003678358   -1.581936179475    0.000000000000
 O    3.687550678358   -0.201475179475    0.000000000000
 H    2.784419678358    0.146951820525    0.000000000000
RB   -4.026298779518    2.774519914326    0.000000000000
