14

 C    3.865745546331   -4.482599413408    0.000000000000
 H    3.873467546331   -5.575774413408    0.000000000000
 C    5.076221546331   -3.762760413408    0.000000000000
 H    6.031240546331   -4.296459413408    0.000000000000
 C    2.645921546331   -3.782593413408    0.000000000000
 H    1.697789546331   -4.328405413408    0.000000000000
 C    5.073813546331   -2.357615413408    0.000000000000
 H    6.005167546331   -1.785076413408    0.000000000000
 C    2.632070546331   -2.375112413408    0.000000000000
 H    1.680071546331   -1.832391413408    0.000000000000
 C    3.848347546331   -1.667330413408    0.000000000000
 O    3.908894546331   -0.286869413408    0.000000000000
 H    3.005763546331    0.061557586592    0.000000000000
RB   -4.271442477152    2.869096097776    0.000000000000
