14

 C    4.042820640710   -4.550914800554    0.000000000000
 H    4.050542640710   -5.644089800554    0.000000000000
 C    5.253296640710   -3.831075800554    0.000000000000
 H    6.208315640710   -4.364774800554    0.000000000000
 C    2.822996640710   -3.850908800554    0.000000000000
 H    1.874864640710   -4.396720800554    0.000000000000
 C    5.250888640710   -2.425930800554    0.000000000000
 H    6.182242640710   -1.853391800554    0.000000000000
 C    2.809145640710   -2.443427800554    0.000000000000
 H    1.857146640710   -1.900706800554    0.000000000000
 C    4.025422640710   -1.735645800554    0.000000000000
 O    4.085969640710   -0.355184800554    0.000000000000
 H    3.182838640710   -0.006757800554    0.000000000000
RB   -4.467557435260    2.944757044537    0.000000000000
