14

 C    4.219895735088   -4.619230187701    0.000000000000
 H    4.227617735088   -5.712405187701    0.000000000000
 C    5.430371735088   -3.899391187701    0.000000000000
 H    6.385390735088   -4.433090187701    0.000000000000
 C    3.000071735088   -3.919224187701    0.000000000000
 H    2.051939735088   -4.465036187701    0.000000000000
 C    5.427963735088   -2.494246187701    0.000000000000
 H    6.359317735088   -1.921707187701    0.000000000000
 C    2.986220735088   -2.511743187701    0.000000000000
 H    2.034221735088   -1.969022187701    0.000000000000
 C    4.202497735088   -1.803961187701    0.000000000000
 O    4.263044735088   -0.423500187701    0.000000000000
 H    3.359913735088   -0.075073187701    0.000000000000
RB   -4.663672393367    3.020417991297    0.000000000000
