14

 C    4.308433282278   -4.653387881274    0.000000000000
 H    4.316155282278   -5.746562881274    0.000000000000
 C    5.518909282278   -3.933548881274    0.000000000000
 H    6.473928282278   -4.467247881274    0.000000000000
 C    3.088609282278   -3.953381881274    0.000000000000
 H    2.140477282278   -4.499193881274    0.000000000000
 C    5.516501282278   -2.528403881274    0.000000000000
 H    6.447855282278   -1.955864881274    0.000000000000
 C    3.074758282278   -2.545900881274    0.000000000000
 H    2.122759282278   -2.003179881274    0.000000000000
 C    4.291035282278   -1.838118881274    0.000000000000
 O    4.351582282278   -0.457657881274    0.000000000000
 H    3.448451282278   -0.109230881274    0.000000000000
RB   -4.761729872421    3.058248464677    0.000000000000
