14

 C    4.352702055872   -4.670466728061    0.000000000000
 H    4.360424055872   -5.763641728061    0.000000000000
 C    5.563178055872   -3.950627728061    0.000000000000
 H    6.518197055872   -4.484326728061    0.000000000000
 C    3.132878055872   -3.970460728061    0.000000000000
 H    2.184746055872   -4.516272728061    0.000000000000
 C    5.560770055872   -2.545482728061    0.000000000000
 H    6.492124055872   -1.972943728061    0.000000000000
 C    3.119027055872   -2.562979728061    0.000000000000
 H    2.167028055872   -2.020258728061    0.000000000000
 C    4.335304055872   -1.855197728061    0.000000000000
 O    4.395851055872   -0.474736728061    0.000000000000
 H    3.492720055872   -0.126309728061    0.000000000000
RB   -4.810758611948    3.077163701367    0.000000000000
