14

 C    4.396970829467   -4.687545574847    0.000000000000
 H    4.404692829467   -5.780720574847    0.000000000000
 C    5.607446829467   -3.967706574847    0.000000000000
 H    6.562465829467   -4.501405574847    0.000000000000
 C    3.177146829467   -3.987539574847    0.000000000000
 H    2.229014829467   -4.533351574847    0.000000000000
 C    5.605038829467   -2.562561574847    0.000000000000
 H    6.536392829467   -1.990022574847    0.000000000000
 C    3.163295829467   -2.580058574847    0.000000000000
 H    2.211296829467   -2.037337574847    0.000000000000
 C    4.379572829467   -1.872276574847    0.000000000000
 O    4.440119829467   -0.491815574847    0.000000000000
 H    3.536988829467   -0.143388574847    0.000000000000
RB   -4.859787351475    3.096078938057    0.000000000000
