14

 C    4.529777150251   -4.738782115207    0.000000000000
 H    4.537499150251   -5.831957115207    0.000000000000
 C    5.740253150251   -4.018943115207    0.000000000000
 H    6.695272150251   -4.552642115207    0.000000000000
 C    3.309953150251   -4.038776115207    0.000000000000
 H    2.361821150251   -4.584588115207    0.000000000000
 C    5.737845150251   -2.613798115207    0.000000000000
 H    6.669199150251   -2.041259115207    0.000000000000
 C    3.296102150251   -2.631295115207    0.000000000000
 H    2.344103150251   -2.088574115207    0.000000000000
 C    4.512379150251   -1.923513115207    0.000000000000
 O    4.572926150251   -0.543052115207    0.000000000000
 H    3.669795150251   -0.194625115207    0.000000000000
RB   -5.006873570056    3.152824648127    0.000000000000
