14

 C    4.574045923846   -4.755860961994    0.000000000000
 H    4.581767923846   -5.849035961994    0.000000000000
 C    5.784521923846   -4.036021961994    0.000000000000
 H    6.739540923846   -4.569720961994    0.000000000000
 C    3.354221923846   -4.055854961994    0.000000000000
 H    2.406089923846   -4.601666961994    0.000000000000
 C    5.782113923846   -2.630876961994    0.000000000000
 H    6.713467923846   -2.058337961994    0.000000000000
 C    3.340370923846   -2.648373961994    0.000000000000
 H    2.388371923846   -2.105652961994    0.000000000000
 C    4.556647923846   -1.940591961994    0.000000000000
 O    4.617194923846   -0.560130961994    0.000000000000
 H    3.714063923846   -0.211703961994    0.000000000000
RB   -5.055902309583    3.171739884817    0.000000000000
