14

 C    4.662583471035   -4.790018655567    0.000000000000
 H    4.670305471035   -5.883193655567    0.000000000000
 C    5.873059471035   -4.070179655567    0.000000000000
 H    6.828078471035   -4.603878655567    0.000000000000
 C    3.442759471035   -4.090012655567    0.000000000000
 H    2.494627471035   -4.635824655567    0.000000000000
 C    5.870651471035   -2.665034655567    0.000000000000
 H    6.802005471035   -2.092495655567    0.000000000000
 C    3.428908471035   -2.682531655567    0.000000000000
 H    2.476909471035   -2.139810655567    0.000000000000
 C    4.645185471035   -1.974749655567    0.000000000000
 O    4.705732471035   -0.594288655567    0.000000000000
 H    3.802601471035   -0.245861655567    0.000000000000
RB   -5.153959788637    3.209570358198    0.000000000000
