14

 C    4.706852244629   -4.807097502354    0.000000000000
 H    4.714574244629   -5.900272502354    0.000000000000
 C    5.917328244629   -4.087258502354    0.000000000000
 H    6.872347244629   -4.620957502354    0.000000000000
 C    3.487028244629   -4.107091502354    0.000000000000
 H    2.538896244629   -4.652903502354    0.000000000000
 C    5.914920244629   -2.682113502354    0.000000000000
 H    6.846274244629   -2.109574502354    0.000000000000
 C    3.473177244629   -2.699610502354    0.000000000000
 H    2.521178244629   -2.156889502354    0.000000000000
 C    4.689454244629   -1.991828502354    0.000000000000
 O    4.750001244629   -0.611367502354    0.000000000000
 H    3.846870244629   -0.262940502354    0.000000000000
RB   -5.202988528164    3.228485594888    0.000000000000
