14

 C    4.795389791819   -4.841255195927    0.000000000000
 H    4.803111791819   -5.934430195927    0.000000000000
 C    6.005865791819   -4.121416195927    0.000000000000
 H    6.960884791819   -4.655115195927    0.000000000000
 C    3.575565791819   -4.141249195927    0.000000000000
 H    2.627433791819   -4.687061195927    0.000000000000
 C    6.003457791819   -2.716271195927    0.000000000000
 H    6.934811791819   -2.143732195927    0.000000000000
 C    3.561714791819   -2.733768195927    0.000000000000
 H    2.609715791819   -2.191047195927    0.000000000000
 C    4.777991791819   -2.025986195927    0.000000000000
 O    4.838538791819   -0.645525195927    0.000000000000
 H    3.935407791819   -0.297098195927    0.000000000000
RB   -5.301046007217    3.266316068268    0.000000000000
