10

 C    0.454652598089    1.861206687910    0.000022434584
 H    0.848139598089    2.874335687910    0.000242434584
 C    1.066685598089    0.611098687910    0.000058434584
 H    2.132392598089    0.392371687910   -0.000035565416
 N   -0.900435401911    1.592238687910    0.000010434584
 H   -1.645369401911    2.278888687910    0.000264434584
 C   -1.058241401911    0.228198687910    0.000065434584
 H   -2.035865401911   -0.247817312090   -0.000060565416
 N    0.120674598089   -0.398396312090    0.000054434584
 K    0.155736527291   -1.397781444718   -0.000078995696
