10

 C    0.453375842971    1.897598583971    0.000027293352
 H    0.846862842971    2.910727583971    0.000247293352
 C    1.065408842971    0.647490583971    0.000063293352
 H    2.131115842971    0.428763583971   -0.000030706648
 N   -0.901712157029    1.628630583971    0.000015293352
 H   -1.646646157029    2.315280583971    0.000269293352
 C   -1.059518157029    0.264590583971    0.000070293352
 H   -2.037142157029   -0.211425416029   -0.000055706648
 N    0.119397842971   -0.362004416029    0.000059293352
 K    0.157965965093   -1.461328061920   -0.000087479956
