10

 C    0.450822332735    1.970382376092    0.000037010889
 H    0.844309332735    2.983511376092    0.000257010889
 C    1.062855332735    0.720274376092    0.000073010889
 H    2.128562332735    0.501547376092   -0.000020989111
 N   -0.904265667265    1.701414376092    0.000025010889
 H   -1.649199667265    2.388064376092    0.000279010889
 C   -1.062071667265    0.337374376092    0.000080010889
 H   -2.039695667265   -0.138641623908   -0.000045989111
 N    0.116844332735   -0.289220623908    0.000069010889
 K    0.162424840696   -1.588421296324   -0.000104448475
