10

 C    0.449545577617    2.006774272153    0.000041869657
 H    0.843032577617    3.019903272153    0.000261869657
 C    1.061578577617    0.756666272153    0.000077869657
 H    2.127285577617    0.537939272153   -0.000016130343
 N   -0.905542422383    1.737806272153    0.000029869657
 H   -1.650476422383    2.424456272153    0.000283869657
 C   -1.063348422383    0.373766272153    0.000084869657
 H   -2.040972422383   -0.102249727847   -0.000041130343
 N    0.115567577617   -0.252828727847    0.000073869657
 K    0.164654278498   -1.651967913526   -0.000112932735
