10

 C    0.448268822498    2.043166168213    0.000046728425
 H    0.841755822498    3.056295168213    0.000266728425
 C    1.060301822498    0.793058168213    0.000082728425
 H    2.126008822498    0.574331168213   -0.000011271575
 N   -0.906819177502    1.774198168213    0.000034728425
 H   -1.651753177502    2.460848168213    0.000288728425
 C   -1.064625177502    0.410158168213    0.000089728425
 H   -2.042249177502   -0.065857831787   -0.000036271575
 N    0.114290822498   -0.216436831787    0.000078728425
 K    0.166883716300   -1.715514530728   -0.000121416995
