10

 C    0.446992067380    2.079558064274    0.000051587194
 H    0.840479067380    3.092687064274    0.000271587194
 C    1.059025067380    0.829450064274    0.000087587194
 H    2.124732067380    0.610723064274   -0.000006412806
 N   -0.908095932620    1.810590064274    0.000039587194
 H   -1.653029932620    2.497240064274    0.000293587194
 C   -1.065901932620    0.446550064274    0.000094587194
 H   -2.043525932620   -0.029465935726   -0.000031412806
 N    0.113014067380   -0.180044935726    0.000083587194
 K    0.169113154102   -1.779061147930   -0.000129901254
