10

 C    0.440608291789    2.261517544578    0.000075881036
 H    0.834095291789    3.274646544578    0.000295881036
 C    1.052641291789    1.011409544578    0.000111881036
 H    2.118348291789    0.792682544578    0.000017881036
 N   -0.914479708211    1.992549544578    0.000063881036
 H   -1.659413708211    2.679199544578    0.000317881036
 C   -1.072285708211    0.628509544578    0.000118881036
 H   -2.049909708211    0.152493544578   -0.000007118964
 N    0.106630291789    0.001914544578    0.000107881036
 K    0.180260343111   -2.096794233940   -0.000172322552
