10

 C    0.439331536671    2.297909440638    0.000080739804
 H    0.832818536671    3.311038440638    0.000300739804
 C    1.051364536671    1.047801440638    0.000116739804
 H    2.117071536671    0.829074440638    0.000022739804
 N   -0.915756463329    2.028941440638    0.000068739804
 H   -1.660690463329    2.715591440638    0.000322739804
 C   -1.073562463329    0.664901440638    0.000123739804
 H   -2.051186463329    0.188885440638   -0.000002260196
 N    0.105353536671    0.038306440638    0.000112739804
 K    0.182489780913   -2.160340851142   -0.000180806812
