10

 C    0.438054781552    2.334301336699    0.000085598573
 H    0.831541781552    3.347430336699    0.000305598573
 C    1.050087781552    1.084193336699    0.000121598573
 H    2.115794781552    0.865466336699    0.000027598573
 N   -0.917033218448    2.065333336699    0.000073598573
 H   -1.661967218448    2.751983336699    0.000327598573
 C   -1.074839218448    0.701293336699    0.000128598573
 H   -2.052463218448    0.225277336699    0.000002598573
 N    0.104076781552    0.074698336699    0.000117598573
 K    0.184719218715   -2.223887468344   -0.000189291072
