10

 C    0.435501271316    2.407085128820    0.000095316109
 H    0.828988271316    3.420214128820    0.000315316109
 C    1.047534271316    1.156977128820    0.000131316109
 H    2.113241271316    0.938250128820    0.000037316109
 N   -0.919586728684    2.138117128820    0.000083316109
 H   -1.664520728684    2.824767128820    0.000337316109
 C   -1.077392728684    0.774077128820    0.000138316109
 H   -2.055016728684    0.298061128820    0.000012316109
 N    0.101523271316    0.147482128820    0.000127316109
 K    0.189178094319   -2.350980702749   -0.000206259591
