10

 C    0.432947761079    2.479868920942    0.000105033646
 H    0.826434761079    3.492997920942    0.000325033646
 C    1.044980761079    1.229760920942    0.000141033646
 H    2.110687761079    1.011033920942    0.000047033646
 N   -0.922140238921    2.210900920942    0.000093033646
 H   -1.667074238921    2.897550920942    0.000347033646
 C   -1.079946238921    0.846860920942    0.000148033646
 H   -2.057570238921    0.370844920942    0.000022033646
 N    0.098969761079    0.220265920942    0.000137033646
 K    0.193636969923   -2.478073937153   -0.000223228110
