10

 C    0.429117495725    2.589044609124    0.000119609951
 H    0.822604495725    3.602173609124    0.000339609951
 C    1.041150495725    1.338936609124    0.000155609951
 H    2.106857495725    1.120209609124    0.000061609951
 N   -0.925970504275    2.320076609124    0.000107609951
 H   -1.670904504275    3.006726609124    0.000361609951
 C   -1.083776504275    0.956036609124    0.000162609951
 H   -2.061400504275    0.480020609124    0.000036609951
 N    0.095139495725    0.329441609124    0.000151609951
 K    0.200325283328   -2.668713788759   -0.000248680889
