10

 C    0.426563985488    2.661828401245    0.000129327488
 H    0.820050985488    3.674957401245    0.000349327488
 C    1.038596985488    1.411720401245    0.000165327488
 H    2.104303985488    1.192993401245    0.000071327488
 N   -0.928524014512    2.392860401245    0.000117327488
 H   -1.673458014512    3.079510401245    0.000371327488
 C   -1.086330014512    1.028820401245    0.000172327488
 H   -2.063954014512    0.552804401245    0.000046327488
 N    0.092585985488    0.402225401245    0.000161327488
 K    0.204784158932   -2.795807023163   -0.000265649408
