10

 C    0.425287230370    2.698220297306    0.000134186256
 H    0.818774230370    3.711349297306    0.000354186256
 C    1.037320230370    1.448112297306    0.000170186256
 H    2.103027230370    1.229385297306    0.000076186256
 N   -0.929800769630    2.429252297306    0.000122186256
 H   -1.674734769630    3.115902297306    0.000376186256
 C   -1.087606769630    1.065212297306    0.000177186256
 H   -2.065230769630    0.589196297306    0.000051186256
 N    0.091309230370    0.438617297306    0.000166186256
 K    0.207013596734   -2.859353640365   -0.000274133668
