10

 C    0.421456965015    2.807395985488    0.000148762561
 H    0.814943965015    3.820524985488    0.000368762561
 C    1.033489965015    1.557287985488    0.000184762561
 H    2.099196965015    1.338560985488    0.000090762561
 N   -0.933631034985    2.538427985488    0.000136762561
 H   -1.678565034985    3.225077985488    0.000390762561
 C   -1.091437034985    1.174387985488    0.000191762561
 H   -2.069061034985    0.698371985488    0.000065762561
 N    0.087478965015    0.547792985488    0.000180762561
 K    0.213701910140   -3.049993491971   -0.000299586447
