10

 C    0.413796434306    3.025747361852    0.000177915172
 H    0.807283434306    4.038876361852    0.000397915172
 C    1.025829434306    1.775639361852    0.000213915172
 H    2.091536434306    1.556912361852    0.000119915172
 N   -0.941291565694    2.756779361852    0.000165915172
 H   -1.686225565694    3.443429361852    0.000419915172
 C   -1.099097565694    1.392739361852    0.000220915172
 H   -2.076721565694    0.916723361852    0.000094915172
 N    0.079818434306    0.766144361852    0.000209915172
 K    0.227078536951   -3.431273195184   -0.000350492004
