10

 C    0.409966168951    3.134923050034    0.000192491477
 H    0.803453168951    4.148052050034    0.000412491477
 C    1.021999168951    1.884815050034    0.000228491477
 H    2.087706168951    1.666088050034    0.000134491477
 N   -0.945121831049    2.865955050034    0.000180491477
 H   -1.690055831049    3.552605050034    0.000434491477
 C   -1.102927831049    1.501915050034    0.000235491477
 H   -2.080551831049    1.025899050034    0.000109491477
 N    0.075988168951    0.875320050034    0.000224491477
 K    0.233766850357   -3.621913046790   -0.000375944783
