10

 C    0.408689413833    3.171314946095    0.000197350245
 H    0.802176413833    4.184443946095    0.000417350245
 C    1.020722413833    1.921206946095    0.000233350245
 H    2.086429413833    1.702479946095    0.000139350245
 N   -0.946398586167    2.902346946095    0.000185350245
 H   -1.691332586167    3.588996946095    0.000439350245
 C   -1.104204586167    1.538306946095    0.000240350245
 H   -2.081828586167    1.062290946095    0.000114350245
 N    0.074711413833    0.911711946095    0.000229350245
 K    0.235996288159   -3.685459663992   -0.000384429043
