10

 C    0.404859148478    3.280490634277    0.000211926550
 H    0.798346148478    4.293619634277    0.000431926550
 C    1.016892148478    2.030382634277    0.000247926550
 H    2.082599148478    1.811655634277    0.000153926550
 N   -0.950228851522    3.011522634277    0.000199926550
 H   -1.695162851522    3.698172634277    0.000453926550
 C   -1.108034851522    1.647482634277    0.000254926550
 H   -2.085658851522    1.171466634277    0.000128926550
 N    0.070881148478    1.020887634277    0.000243926550
 K    0.242684601564   -3.876099515598   -0.000409881822
