10

 C    0.403582393360    3.316882530338    0.000216785319
 H    0.797069393360    4.330011530338    0.000436785319
 C    1.015615393360    2.066774530338    0.000252785319
 H    2.081322393360    1.848047530338    0.000158785319
 N   -0.951505606640    3.047914530338    0.000204785319
 H   -1.696439606640    3.734564530338    0.000458785319
 C   -1.109311606640    1.683874530338    0.000259785319
 H   -2.086935606640    1.207858530338    0.000133785319
 N    0.069604393360    1.057279530338    0.000248785319
 K    0.244914039366   -3.939646132800   -0.000418366081
