10

 C    0.398475372887    3.462450114580    0.000236220392
 H    0.791962372887    4.475579114580    0.000456220392
 C    1.010508372887    2.212342114580    0.000272220392
 H    2.076215372887    1.993615114580    0.000178220392
 N   -0.956612627113    3.193482114580    0.000224220392
 H   -1.701546627113    3.880132114580    0.000478220392
 C   -1.114418627113    1.829442114580    0.000279220392
 H   -2.092042627113    1.353426114580    0.000153220392
 N    0.064497372887    1.202847114580    0.000268220392
 K    0.253831790574   -4.193832601608   -0.000452303120
