10

 C    0.394645107532    3.571625802763    0.000250796697
 H    0.788132107532    4.584754802763    0.000470796697
 C    1.006678107532    2.321517802763    0.000286796697
 H    2.072385107532    2.102790802763    0.000192796697
 N   -0.960442892468    3.302657802763    0.000238796697
 H   -1.705376892468    3.989307802763    0.000492796697
 C   -1.118248892468    1.938617802763    0.000293796697
 H   -2.095872892468    1.462601802763    0.000167796697
 N    0.060667107532    1.312022802763    0.000282796697
 K    0.260520103979   -4.384472453215   -0.000477755899
