10

 C    0.392091597295    3.644409594884    0.000260514234
 H    0.785578597295    4.657538594884    0.000480514234
 C    1.004124597295    2.394301594884    0.000296514234
 H    2.069831597295    2.175574594884    0.000202514234
 N   -0.962996402705    3.375441594884    0.000248514234
 H   -1.707930402705    4.062091594884    0.000502514234
 C   -1.120802402705    2.011401594884    0.000303514234
 H   -2.098426402705    1.535385594884    0.000177514234
 N    0.058113597295    1.384806594884    0.000292514234
 K    0.264978979583   -4.511565687619   -0.000494724418
