10

 C    0.388261331941    3.753585283066    0.000275090539
 H    0.781748331941    4.766714283066    0.000495090539
 C    1.000294331941    2.503477283066    0.000311090539
 H    2.066001331941    2.284750283066    0.000217090539
 N   -0.966826668059    3.484617283066    0.000263090539
 H   -1.711760668059    4.171267283066    0.000517090539
 C   -1.124632668059    2.120577283066    0.000318090539
 H   -2.102256668059    1.644561283066    0.000192090539
 N    0.054283331941    1.493982283066    0.000307090539
 K    0.271667292989   -4.702205539225   -0.000520177197
