10

 C    0.385707821704    3.826369075187    0.000284808076
 H    0.779194821704    4.839498075187    0.000504808076
 C    0.997740821704    2.576261075187    0.000320808076
 H    2.063447821704    2.357534075187    0.000226808076
 N   -0.969380178296    3.557401075187    0.000272808076
 H   -1.714314178296    4.244051075187    0.000526808076
 C   -1.127186178296    2.193361075187    0.000327808076
 H   -2.104810178296    1.717345075187    0.000201808076
 N    0.051729821704    1.566766075187    0.000316808076
 K    0.276126168592   -4.829298773629   -0.000537145716
