10

 C    0.379324046113    4.008328555491    0.000309101918
 H    0.772811046113    5.021457555491    0.000529101918
 C    0.991357046113    2.758220555491    0.000345101918
 H    2.057064046113    2.539493555491    0.000251101918
 N   -0.975763953887    3.739360555491    0.000297101918
 H   -1.720697953887    4.426010555491    0.000551101918
 C   -1.133569953887    2.375320555491    0.000352101918
 H   -2.111193953887    1.899304555491    0.000226101918
 N    0.045346046113    1.748725555491    0.000341101918
 K    0.287273357602   -5.147031859639   -0.000579567014
