10

 C    0.376770535877    4.081112347612    0.000318819455
 H    0.770257535877    5.094241347612    0.000538819455
 C    0.988803535877    2.831004347612    0.000354819455
 H    2.054510535877    2.612277347612    0.000260819455
 N   -0.978317464123    3.812144347612    0.000306819455
 H   -1.723251464123    4.498794347612    0.000560819455
 C   -1.136123464123    2.448104347612    0.000361819455
 H   -2.113747464123    1.972088347612    0.000235819455
 N    0.042792535877    1.821509347612    0.000350819455
 K    0.291732233206   -5.274125094044   -0.000596535533
