10

 C    0.375493780758    4.117504243673    0.000323678223
 H    0.768980780758    5.130633243673    0.000543678223
 C    0.987526780758    2.867396243673    0.000359678223
 H    2.053233780758    2.648669243673    0.000265678223
 N   -0.979594219242    3.848536243673    0.000311678223
 H   -1.724528219242    4.535186243673    0.000565678223
 C   -1.137400219242    2.484496243673    0.000366678223
 H   -2.115024219242    2.008480243673    0.000240678223
 N    0.041515780758    1.857901243673    0.000355678223
 K    0.293961671007   -5.337671711246   -0.000605019793
