10

 C    0.372940270522    4.190288035794    0.000333395760
 H    0.766427270522    5.203417035794    0.000553395760
 C    0.984973270522    2.940180035794    0.000369395760
 H    2.050680270522    2.721453035794    0.000275395760
 N   -0.982147729478    3.921320035794    0.000321395760
 H   -1.727081729478    4.607970035794    0.000575395760
 C   -1.139953729478    2.557280035794    0.000376395760
 H   -2.117577729478    2.081264035794    0.000250395760
 N    0.038962270522    1.930685035794    0.000365395760
 K    0.298420546611   -5.464764945650   -0.000621988312
