10

 C    0.371663515404    4.226679931855    0.000338254528
 H    0.765150515404    5.239808931855    0.000558254528
 C    0.983696515404    2.976571931855    0.000374254528
 H    2.049403515404    2.757844931855    0.000280254528
 N   -0.983424484596    3.957711931855    0.000326254528
 H   -1.728358484596    4.644361931855    0.000580254528
 C   -1.141230484596    2.593671931855    0.000381254528
 H   -2.118854484596    2.117655931855    0.000255254528
 N    0.037685515404    1.967076931855    0.000370254528
 K    0.300649984413   -5.528311562852   -0.000630472572
