10

 C    0.367833250049    4.335855620037    0.000352830833
 H    0.761320250049    5.348984620037    0.000572830833
 C    0.979866250049    3.085747620037    0.000388830833
 H    2.045573250049    2.867020620037    0.000294830833
 N   -0.987254749951    4.066887620037    0.000340830833
 H   -1.732188749951    4.753537620037    0.000594830833
 C   -1.145060749951    2.702847620037    0.000395830833
 H   -2.122684749951    2.226831620037    0.000269830833
 N    0.033855250049    2.076252620037    0.000384830833
 K    0.307338297819   -5.718951414458   -0.000655925351
