10

 C    0.365279739812    4.408639412159    0.000362548370
 H    0.758766739812    5.421768412159    0.000582548370
 C    0.977312739812    3.158531412159    0.000398548370
 H    2.043019739812    2.939804412159    0.000304548370
 N   -0.989808260188    4.139671412159    0.000350548370
 H   -1.734742260188    4.826321412159    0.000604548370
 C   -1.147614260188    2.775631412159    0.000405548370
 H   -2.125238260188    2.299615412159    0.000279548370
 N    0.031301739812    2.149036412159    0.000394548370
 K    0.311797173423   -5.846044648862   -0.000672893870
