10

 C    0.358895964221    4.590598892462    0.000386842212
 H    0.752382964221    5.603727892462    0.000606842212
 C    0.970928964221    3.340490892462    0.000422842212
 H    2.036635964221    3.121763892462    0.000328842212
 N   -0.996192035779    4.321630892462    0.000374842212
 H   -1.741126035779    5.008280892462    0.000628842212
 C   -1.153998035779    2.957590892462    0.000429842212
 H   -2.131622035779    2.481574892462    0.000303842212
 N    0.024917964221    2.330995892462    0.000418842212
 K    0.322944362432   -6.163777734872   -0.000715315168
