10

 C    0.356342453985    4.663382684583    0.000396559749
 H    0.749829453985    5.676511684583    0.000616559749
 C    0.968375453985    3.413274684583    0.000432559749
 H    2.034082453985    3.194547684583    0.000338559749
 N   -0.998745546015    4.394414684583    0.000384559749
 H   -1.743679546015    5.081064684583    0.000638559749
 C   -1.156551546015    3.030374684583    0.000439559749
 H   -2.134175546015    2.554358684583    0.000313559749
 N    0.022364453985    2.403779684583    0.000428559749
 K    0.327403238036   -6.290870969277   -0.000732283687
