10

 C    0.355065698866    4.699774580644    0.000401418517
 H    0.748552698866    5.712903580644    0.000621418517
 C    0.967098698866    3.449666580644    0.000437418517
 H    2.032805698866    3.230939580644    0.000343418517
 N   -1.000022301134    4.430806580644    0.000389418517
 H   -1.744956301134    5.117456580644    0.000643418517
 C   -1.157828301134    3.066766580644    0.000444418517
 H   -2.135452301134    2.590750580644    0.000318418517
 N    0.021087698866    2.440171580644    0.000433418517
 K    0.329632675838   -6.354417586479   -0.000740767947
