10

 C    0.348681923275    4.881734060948    0.000425712359
 H    0.742168923275    5.894863060948    0.000645712359
 C    0.960714923275    3.631626060948    0.000461712359
 H    2.026421923275    3.412899060948    0.000367712359
 N   -1.006406076725    4.612766060948    0.000413712359
 H   -1.751340076725    5.299416060948    0.000667712359
 C   -1.164212076725    3.248726060948    0.000468712359
 H   -2.141836076725    2.772710060948    0.000342712359
 N    0.014703923275    2.622131060948    0.000457712359
 K    0.340779864847   -6.672150672489   -0.000783189245
