10

 C    0.342298147684    5.063693541251    0.000450006201
 H    0.735785147684    6.076822541251    0.000670006201
 C    0.954331147684    3.813585541251    0.000486006201
 H    2.020038147684    3.594858541251    0.000392006201
 N   -1.012789852316    4.794725541251    0.000438006201
 H   -1.757723852316    5.481375541251    0.000692006201
 C   -1.170595852316    3.430685541251    0.000493006201
 H   -2.148219852316    2.954669541251    0.000367006201
 N    0.008320147684    2.804090541251    0.000482006201
 K    0.351927053856   -6.989883758499   -0.000825610543
