26

 C    2.403794207972    1.226119043083    0.701720000000
 H    2.500354207972    2.157299043083    1.266840000000
 C    2.403794207972    1.226119043083   -0.701720000000
 H    2.500354207972    2.157299043083   -1.266840000000
 C    2.317734207972    0.004809043083    1.393560000000
 H    2.299374207972    0.005349043083    2.488430000000
 C    2.317734207972    0.004809043083   -1.393560000000
 H    2.299374207972    0.005349043083   -2.488430000000
 C    2.415464207972   -1.215370956917    0.701560000000
 H    2.520904207972   -2.145520956917    1.267200000000
 C    2.415464207972   -1.215370956917   -0.701560000000
 H    2.520904207972   -2.145520956917   -1.267200000000
RB   -0.426735792028    3.050149043083    0.000000000000
RB   -0.403095792028   -3.051870956917    0.000000000000
 C   -1.500970498078   -1.224240713573   -0.701715247864
 H   -1.597540587991   -2.155420616932   -1.266838416487
 C   -1.500970498078   -1.224240713573    0.701715247864
 H   -1.597540587991   -2.155420616932    1.266838416487
 C   -1.414913643789   -0.002933750666   -1.393560000000
 H   -1.396552824263   -0.003478641389   -2.488435921874
 C   -1.414913643789   -0.002933750666    1.393560000000
 H   -1.396552824263   -0.003478641389    2.488435921874
 C   -1.512642887049    1.217237601912   -0.701558994141
 H   -1.618077658928    2.147390355973   -1.267195516911
 C   -1.512642887049    1.217237601912    0.701558994141
 H   -1.618077658928    2.147390355973    1.267195516911
