26

 C    2.571421755270    1.226466501161    0.701720000000
 H    2.667981755270    2.157646501161    1.266840000000
 C    2.571421755270    1.226466501161   -0.701720000000
 H    2.667981755270    2.157646501161   -1.266840000000
 C    2.485361755270    0.005156501161    1.393560000000
 H    2.467001755270    0.005696501161    2.488430000000
 C    2.485361755270    0.005156501161   -1.393560000000
 H    2.467001755270    0.005696501161   -2.488430000000
 C    2.583091755270   -1.215023498839    0.701560000000
 H    2.688531755270   -2.145173498839    1.267200000000
 C    2.583091755270   -1.215023498839   -0.701560000000
 H    2.688531755270   -2.145173498839   -1.267200000000
RB   -0.259108244730    3.050496501161    0.000000000000
RB   -0.235468244730   -3.051523498839    0.000000000000
 C   -2.033341447013   -1.225344211119   -0.701715247864
 H   -2.129911536925   -2.156524114478   -1.266838416487
 C   -2.033341447013   -1.225344211119    0.701715247864
 H   -2.129911536925   -2.156524114478    1.266838416487
 C   -1.947284592724   -0.004037248212   -1.393560000000
 H   -1.928923773197   -0.004582138934   -2.488435921874
 C   -1.947284592724   -0.004037248212    1.393560000000
 H   -1.928923773197   -0.004582138934    2.488435921874
 C   -2.045013835984    1.216134104366   -0.701558994141
 H   -2.150448607863    2.146286858428   -1.267195516911
 C   -2.045013835984    1.216134104366    0.701558994141
 H   -2.150448607863    2.146286858428    1.267195516911
