26

 C    4.559005530374    1.230586361235    0.701720000000
 H    4.655565530374    2.161766361235    1.266840000000
 C    4.559005530374    1.230586361235   -0.701720000000
 H    4.655565530374    2.161766361235   -1.266840000000
 C    4.472945530374    0.009276361235    1.393560000000
 H    4.454585530374    0.009816361235    2.488430000000
 C    4.472945530374    0.009276361235   -1.393560000000
 H    4.454585530374    0.009816361235   -2.488430000000
 C    4.570675530374   -1.210903638765    0.701560000000
 H    4.676115530374   -2.141053638765    1.267200000000
 C    4.570675530374   -1.210903638765   -0.701560000000
 H    4.676115530374   -2.141053638765   -1.267200000000
RB    1.728475530374    3.054616361235    0.000000000000
RB    1.752115530374   -3.047403638765    0.000000000000
 C   -8.345739841522   -1.238428539158   -0.701715247864
 H   -8.442309931435   -2.169608442517   -1.266838416487
 C   -8.345739841522   -1.238428539158    0.701715247864
 H   -8.442309931435   -2.169608442517    1.266838416487
 C   -8.259682987233   -0.017121576250   -1.393560000000
 H   -8.241322167707   -0.017666466973   -2.488435921874
 C   -8.259682987233   -0.017121576250    1.393560000000
 H   -8.241322167707   -0.017666466973    2.488435921874
 C   -8.357412230493    1.203049776327   -0.701558994141
 H   -8.462847002372    2.133202530389   -1.267195516911
 C   -8.357412230493    1.203049776327    0.701558994141
 H   -8.462847002372    2.133202530389    1.267195516911
