26

 C    2.667208925154    1.226665048635    0.701720000000
 H    2.763768925154    2.157845048635    1.266840000000
 C    2.667208925154    1.226665048635   -0.701720000000
 H    2.763768925154    2.157845048635   -1.266840000000
 C    2.581148925154    0.005355048635    1.393560000000
 H    2.562788925154    0.005895048635    2.488430000000
 C    2.581148925154    0.005355048635   -1.393560000000
 H    2.562788925154    0.005895048635   -2.488430000000
 C    2.678878925154   -1.214824951365    0.701560000000
 H    2.784318925154   -2.144974951365    1.267200000000
 C    2.678878925154   -1.214824951365   -0.701560000000
 H    2.784318925154   -2.144974951365   -1.267200000000
RB   -0.163321074846    3.050695048635    0.000000000000
RB   -0.139681074846   -3.051324951365    0.000000000000
 C   -2.337553417832   -1.225974781145   -0.701715247864
 H   -2.434123507745   -2.157154684504   -1.266838416487
 C   -2.337553417832   -1.225974781145    0.701715247864
 H   -2.434123507745   -2.157154684504    1.266838416487
 C   -2.251496563543   -0.004667818237   -1.393560000000
 H   -2.233135744017   -0.005212708960   -2.488435921874
 C   -2.251496563543   -0.004667818237    1.393560000000
 H   -2.233135744017   -0.005212708960    2.488435921874
 C   -2.349225806804    1.215503534340   -0.701558994141
 H   -2.454660578682    2.145656288402   -1.267195516911
 C   -2.349225806804    1.215503534340    0.701558994141
 H   -2.454660578682    2.145656288402    1.267195516911
