26

 C    2.715102510096    1.226764322371    0.701720000000
 H    2.811662510096    2.157944322371    1.266840000000
 C    2.715102510096    1.226764322371   -0.701720000000
 H    2.811662510096    2.157944322371   -1.266840000000
 C    2.629042510096    0.005454322371    1.393560000000
 H    2.610682510096    0.005994322371    2.488430000000
 C    2.629042510096    0.005454322371   -1.393560000000
 H    2.610682510096    0.005994322371   -2.488430000000
 C    2.726772510096   -1.214725677629    0.701560000000
 H    2.832212510096   -2.144875677629    1.267200000000
 C    2.726772510096   -1.214725677629   -0.701560000000
 H    2.832212510096   -2.144875677629   -1.267200000000
RB   -0.115427489904    3.050794322371    0.000000000000
RB   -0.091787489904   -3.051225677629    0.000000000000
 C   -2.489659403242   -1.226290066158   -0.701715247864
 H   -2.586229493155   -2.157469969517   -1.266838416487
 C   -2.489659403242   -1.226290066158    0.701715247864
 H   -2.586229493155   -2.157469969517    1.266838416487
 C   -2.403602548953   -0.004983103250   -1.393560000000
 H   -2.385241729427   -0.005527993973   -2.488435921874
 C   -2.403602548953   -0.004983103250    1.393560000000
 H   -2.385241729427   -0.005527993973    2.488435921874
 C   -2.501331792213    1.215188249327   -0.701558994141
 H   -2.606766564092    2.145341003389   -1.267195516911
 C   -2.501331792213    1.215188249327    0.701558994141
 H   -2.606766564092    2.145341003389    1.267195516911
