26

 C    2.810889679981    1.226962869845    0.701720000000
 H    2.907449679981    2.158142869845    1.266840000000
 C    2.810889679981    1.226962869845   -0.701720000000
 H    2.907449679981    2.158142869845   -1.266840000000
 C    2.724829679981    0.005652869845    1.393560000000
 H    2.706469679981    0.006192869845    2.488430000000
 C    2.724829679981    0.005652869845   -1.393560000000
 H    2.706469679981    0.006192869845   -2.488430000000
 C    2.822559679981   -1.214527130155    0.701560000000
 H    2.927999679981   -2.144677130155    1.267200000000
 C    2.822559679981   -1.214527130155   -0.701560000000
 H    2.927999679981   -2.144677130155   -1.267200000000
RB   -0.019640320019    3.050992869845    0.000000000000
RB    0.003999679981   -3.051027130155    0.000000000000
 C   -2.793871374062   -1.226920636184   -0.701715247864
 H   -2.890441463975   -2.158100539543   -1.266838416487
 C   -2.793871374062   -1.226920636184    0.701715247864
 H   -2.890441463975   -2.158100539543    1.266838416487
 C   -2.707814519773   -0.005613673276   -1.393560000000
 H   -2.689453700247   -0.006158563999   -2.488435921874
 C   -2.707814519773   -0.005613673276    1.393560000000
 H   -2.689453700247   -0.006158563999    2.488435921874
 C   -2.805543763033    1.214557679301   -0.701558994141
 H   -2.910978534912    2.144710433363   -1.267195516911
 C   -2.805543763033    1.214557679301    0.701558994141
 H   -2.910978534912    2.144710433363    1.267195516911
