26

 C    3.098251189635    1.227558512265    0.701720000000
 H    3.194811189635    2.158738512265    1.266840000000
 C    3.098251189635    1.227558512265   -0.701720000000
 H    3.194811189635    2.158738512265   -1.266840000000
 C    3.012191189635    0.006248512265    1.393560000000
 H    2.993831189635    0.006788512265    2.488430000000
 C    3.012191189635    0.006248512265   -1.393560000000
 H    2.993831189635    0.006788512265   -2.488430000000
 C    3.109921189635   -1.213931487735    0.701560000000
 H    3.215361189635   -2.144081487735    1.267200000000
 C    3.109921189635   -1.213931487735   -0.701560000000
 H    3.215361189635   -2.144081487735   -1.267200000000
RB    0.267721189635    3.051588512265    0.000000000000
RB    0.291361189635   -3.050431487735    0.000000000000
 C   -3.706507286521   -1.228812346261   -0.701715247864
 H   -3.803077376434   -2.159992249621   -1.266838416487
 C   -3.706507286521   -1.228812346261    0.701715247864
 H   -3.803077376434   -2.159992249621    1.266838416487
 C   -3.620450432232   -0.007505383354   -1.393560000000
 H   -3.602089612706   -0.008050274077   -2.488435921874
 C   -3.620450432232   -0.007505383354    1.393560000000
 H   -3.602089612706   -0.008050274077    2.488435921874
 C   -3.718179675492    1.212665969224   -0.701558994141
 H   -3.823614447371    2.142818723285   -1.267195516911
 C   -3.718179675492    1.212665969224    0.701558994141
 H   -3.823614447371    2.142818723285    1.267195516911
