26

 C    3.289825529404    1.227955607212    0.701720000000
 H    3.386385529404    2.159135607212    1.266840000000
 C    3.289825529404    1.227955607212   -0.701720000000
 H    3.386385529404    2.159135607212   -1.266840000000
 C    3.203765529404    0.006645607212    1.393560000000
 H    3.185405529404    0.007185607212    2.488430000000
 C    3.203765529404    0.006645607212   -1.393560000000
 H    3.185405529404    0.007185607212   -2.488430000000
 C    3.301495529404   -1.213534392788    0.701560000000
 H    3.406935529404   -2.143684392788    1.267200000000
 C    3.301495529404   -1.213534392788   -0.701560000000
 H    3.406935529404   -2.143684392788   -1.267200000000
RB    0.459295529404    3.051985607212    0.000000000000
RB    0.482935529404   -3.050034392788    0.000000000000
 C   -4.314931228161   -1.230073486313   -0.701715247864
 H   -4.411501318073   -2.161253389673   -1.266838416487
 C   -4.314931228161   -1.230073486313    0.701715247864
 H   -4.411501318073   -2.161253389673    1.266838416487
 C   -4.228874373872   -0.008766523406   -1.393560000000
 H   -4.210513554345   -0.009311414129   -2.488435921874
 C   -4.228874373872   -0.008766523406    1.393560000000
 H   -4.210513554345   -0.009311414129    2.488435921874
 C   -4.326603617132    1.211404829172   -0.701558994141
 H   -4.432038389011    2.141557583233   -1.267195516911
 C   -4.326603617132    1.211404829172    0.701558994141
 H   -4.432038389011    2.141557583233    1.267195516911
