26

 C    3.313772321875    1.228005244080    0.701720000000
 H    3.410332321875    2.159185244080    1.266840000000
 C    3.313772321875    1.228005244080   -0.701720000000
 H    3.410332321875    2.159185244080   -1.266840000000
 C    3.227712321875    0.006695244080    1.393560000000
 H    3.209352321875    0.007235244080    2.488430000000
 C    3.227712321875    0.006695244080   -1.393560000000
 H    3.209352321875    0.007235244080   -2.488430000000
 C    3.325442321875   -1.213484755920    0.701560000000
 H    3.430882321875   -2.143634755920    1.267200000000
 C    3.325442321875   -1.213484755920   -0.701560000000
 H    3.430882321875   -2.143634755920   -1.267200000000
RB    0.483242321875    3.052035244080    0.000000000000
RB    0.506882321875   -3.049984755920    0.000000000000
 C   -4.390984220866   -1.230231128820   -0.701715247864
 H   -4.487554310778   -2.161411032179   -1.266838416487
 C   -4.390984220866   -1.230231128820    0.701715247864
 H   -4.487554310778   -2.161411032179    1.266838416487
 C   -4.304927366577   -0.008924165913   -1.393560000000
 H   -4.286566547050   -0.009469056635   -2.488435921874
 C   -4.304927366577   -0.008924165913    1.393560000000
 H   -4.286566547050   -0.009469056635    2.488435921874
 C   -4.402656609837    1.211247186665   -0.701558994141
 H   -4.508091381716    2.141399940726   -1.267195516911
 C   -4.402656609837    1.211247186665    0.701558994141
 H   -4.508091381716    2.141399940726    1.267195516911
