26

 C    3.361665906817    1.228104517817    0.701720000000
 H    3.458225906817    2.159284517817    1.266840000000
 C    3.361665906817    1.228104517817   -0.701720000000
 H    3.458225906817    2.159284517817   -1.266840000000
 C    3.275605906817    0.006794517817    1.393560000000
 H    3.257245906817    0.007334517817    2.488430000000
 C    3.275605906817    0.006794517817   -1.393560000000
 H    3.257245906817    0.007334517817   -2.488430000000
 C    3.373335906817   -1.213385482183    0.701560000000
 H    3.478775906817   -2.143535482183    1.267200000000
 C    3.373335906817   -1.213385482183   -0.701560000000
 H    3.478775906817   -2.143535482183   -1.267200000000
RB    0.531135906817    3.052134517817    0.000000000000
RB    0.554775906817   -3.049885482183    0.000000000000
 C   -4.543090206276   -1.230546413833   -0.701715247864
 H   -4.639660296188   -2.161726317192   -1.266838416487
 C   -4.543090206276   -1.230546413833    0.701715247864
 H   -4.639660296188   -2.161726317192    1.266838416487
 C   -4.457033351986   -0.009239450926   -1.393560000000
 H   -4.438672532460   -0.009784341648   -2.488435921874
 C   -4.457033351986   -0.009239450926    1.393560000000
 H   -4.438672532460   -0.009784341648    2.488435921874
 C   -4.554762595247    1.210931901652   -0.701558994141
 H   -4.660197367126    2.141084655713   -1.267195516911
 C   -4.554762595247    1.210931901652    0.701558994141
 H   -4.660197367126    2.141084655713    1.267195516911
