26

 C    3.457453076702    1.228303065291    0.701720000000
 H    3.554013076702    2.159483065291    1.266840000000
 C    3.457453076702    1.228303065291   -0.701720000000
 H    3.554013076702    2.159483065291   -1.266840000000
 C    3.371393076702    0.006993065291    1.393560000000
 H    3.353033076702    0.007533065291    2.488430000000
 C    3.371393076702    0.006993065291   -1.393560000000
 H    3.353033076702    0.007533065291   -2.488430000000
 C    3.469123076702   -1.213186934709    0.701560000000
 H    3.574563076702   -2.143336934709    1.267200000000
 C    3.469123076702   -1.213186934709   -0.701560000000
 H    3.574563076702   -2.143336934709   -1.267200000000
RB    0.626923076702    3.052333065291    0.000000000000
RB    0.650563076702   -3.049686934709    0.000000000000
 C   -4.847302177095   -1.231176983859   -0.701715247864
 H   -4.943872267008   -2.162356887218   -1.266838416487
 C   -4.847302177095   -1.231176983859    0.701715247864
 H   -4.943872267008   -2.162356887218    1.266838416487
 C   -4.761245322806   -0.009870020952   -1.393560000000
 H   -4.742884503280   -0.010414911674   -2.488435921874
 C   -4.761245322806   -0.009870020952    1.393560000000
 H   -4.742884503280   -0.010414911674    2.488435921874
 C   -4.858974566066    1.210301331626   -0.701558994141
 H   -4.964409337945    2.140454085687   -1.267195516911
 C   -4.858974566066    1.210301331626    0.701558994141
 H   -4.964409337945    2.140454085687    1.267195516911
