26

 C    3.625080624000    1.228650523369    0.701720000000
 H    3.721640624000    2.159830523369    1.266840000000
 C    3.625080624000    1.228650523369   -0.701720000000
 H    3.721640624000    2.159830523369   -1.266840000000
 C    3.539020624000    0.007340523369    1.393560000000
 H    3.520660624000    0.007880523369    2.488430000000
 C    3.539020624000    0.007340523369   -1.393560000000
 H    3.520660624000    0.007880523369   -2.488430000000
 C    3.636750624000   -1.212839476631    0.701560000000
 H    3.742190624000   -2.142989476631    1.267200000000
 C    3.636750624000   -1.212839476631   -0.701560000000
 H    3.742190624000   -2.142989476631   -1.267200000000
RB    0.794550624000    3.052680523369    0.000000000000
RB    0.818190624000   -3.049339476631    0.000000000000
 C   -5.379673126030   -1.232280481404   -0.701715247864
 H   -5.476243215942   -2.163460384764   -1.266838416487
 C   -5.379673126030   -1.232280481404    0.701715247864
 H   -5.476243215942   -2.163460384764    1.266838416487
 C   -5.293616271741   -0.010973518497   -1.393560000000
 H   -5.275255452214   -0.011518409220   -2.488435921874
 C   -5.293616271741   -0.010973518497    1.393560000000
 H   -5.275255452214   -0.011518409220    2.488435921874
 C   -5.391345515001    1.209197834081   -0.701558994141
 H   -5.496780286880    2.139350588142   -1.267195516911
 C   -5.391345515001    1.209197834081    0.701558994141
 H   -5.496780286880    2.139350588142    1.267195516911
