26

 C    3.720867793884    1.228849070843    0.701720000000
 H    3.817427793884    2.160029070843    1.266840000000
 C    3.720867793884    1.228849070843   -0.701720000000
 H    3.817427793884    2.160029070843   -1.266840000000
 C    3.634807793884    0.007539070843    1.393560000000
 H    3.616447793884    0.008079070843    2.488430000000
 C    3.634807793884    0.007539070843   -1.393560000000
 H    3.616447793884    0.008079070843   -2.488430000000
 C    3.732537793884   -1.212640929157    0.701560000000
 H    3.837977793884   -2.142790929157    1.267200000000
 C    3.732537793884   -1.212640929157   -0.701560000000
 H    3.837977793884   -2.142790929157   -1.267200000000
RB    0.890337793884    3.052879070843    0.000000000000
RB    0.913977793884   -3.049140929157    0.000000000000
 C   -5.683885096850   -1.232911051430   -0.701715247864
 H   -5.780455186762   -2.164090954789   -1.266838416487
 C   -5.683885096850   -1.232911051430    0.701715247864
 H   -5.780455186762   -2.164090954789    1.266838416487
 C   -5.597828242560   -0.011604088523   -1.393560000000
 H   -5.579467423034   -0.012148979246   -2.488435921874
 C   -5.597828242560   -0.011604088523    1.393560000000
 H   -5.579467423034   -0.012148979246    2.488435921874
 C   -5.695557485821    1.208567264055   -0.701558994141
 H   -5.800992257700    2.138720018116   -1.267195516911
 C   -5.695557485821    1.208567264055    0.701558994141
 H   -5.800992257700    2.138720018116    1.267195516911
