26

 C    3.960335718596    1.229345439526    0.701720000000
 H    4.056895718596    2.160525439526    1.266840000000
 C    3.960335718596    1.229345439526   -0.701720000000
 H    4.056895718596    2.160525439526   -1.266840000000
 C    3.874275718596    0.008035439526    1.393560000000
 H    3.855915718596    0.008575439526    2.488430000000
 C    3.874275718596    0.008035439526   -1.393560000000
 H    3.855915718596    0.008575439526   -2.488430000000
 C    3.972005718596   -1.212144560474    0.701560000000
 H    4.077445718596   -2.142294560474    1.267200000000
 C    3.972005718596   -1.212144560474   -0.701560000000
 H    4.077445718596   -2.142294560474   -1.267200000000
RB    1.129805718596    3.053375439526    0.000000000000
RB    1.153445718596   -3.048644560474    0.000000000000
 C   -6.444415023899   -1.234487476495   -0.701715247864
 H   -6.540985113811   -2.165667379854   -1.266838416487
 C   -6.444415023899   -1.234487476495    0.701715247864
 H   -6.540985113811   -2.165667379854    1.266838416487
 C   -6.358358169610   -0.013180513588   -1.393560000000
 H   -6.339997350083   -0.013725404311   -2.488435921874
 C   -6.358358169610   -0.013180513588    1.393560000000
 H   -6.339997350083   -0.013725404311    2.488435921874
 C   -6.456087412870    1.206990838990   -0.701558994141
 H   -6.561522184749    2.137143593051   -1.267195516911
 C   -6.456087412870    1.206990838990    0.701558994141
 H   -6.561522184749    2.137143593051    1.267195516911
