26

 C    3.984282511067    1.229395076395    0.701720000000
 H    4.080842511067    2.160575076395    1.266840000000
 C    3.984282511067    1.229395076395   -0.701720000000
 H    4.080842511067    2.160575076395   -1.266840000000
 C    3.898222511067    0.008085076395    1.393560000000
 H    3.879862511067    0.008625076395    2.488430000000
 C    3.898222511067    0.008085076395   -1.393560000000
 H    3.879862511067    0.008625076395   -2.488430000000
 C    3.995952511067   -1.212094923605    0.701560000000
 H    4.101392511067   -2.142244923605    1.267200000000
 C    3.995952511067   -1.212094923605   -0.701560000000
 H    4.101392511067   -2.142244923605   -1.267200000000
RB    1.153752511067    3.053425076395    0.000000000000
RB    1.177392511067   -3.048594923605    0.000000000000
 C   -6.520468016604   -1.234645119002   -0.701715247864
 H   -6.617038106516   -2.165825022361   -1.266838416487
 C   -6.520468016604   -1.234645119002    0.701715247864
 H   -6.617038106516   -2.165825022361    1.266838416487
 C   -6.434411162315   -0.013338156095   -1.393560000000
 H   -6.416050342788   -0.013883046817   -2.488435921874
 C   -6.434411162315   -0.013338156095    1.393560000000
 H   -6.416050342788   -0.013883046817    2.488435921874
 C   -6.532140405575    1.206833196483   -0.701558994141
 H   -6.637575177454    2.136985950545   -1.267195516911
 C   -6.532140405575    1.206833196483    0.701558994141
 H   -6.637575177454    2.136985950545    1.267195516911
