26

 C    4.008229303538    1.229444713263    0.701720000000
 H    4.104789303538    2.160624713263    1.266840000000
 C    4.008229303538    1.229444713263   -0.701720000000
 H    4.104789303538    2.160624713263   -1.266840000000
 C    3.922169303538    0.008134713263    1.393560000000
 H    3.903809303538    0.008674713263    2.488430000000
 C    3.922169303538    0.008134713263   -1.393560000000
 H    3.903809303538    0.008674713263   -2.488430000000
 C    4.019899303538   -1.212045286737    0.701560000000
 H    4.125339303538   -2.142195286737    1.267200000000
 C    4.019899303538   -1.212045286737   -0.701560000000
 H    4.125339303538   -2.142195286737   -1.267200000000
RB    1.177699303538    3.053474713263    0.000000000000
RB    1.201339303538   -3.048545286737    0.000000000000
 C   -6.596521009309   -1.234802761508   -0.701715247864
 H   -6.693091099221   -2.165982664867   -1.266838416487
 C   -6.596521009309   -1.234802761508    0.701715247864
 H   -6.693091099221   -2.165982664867    1.266838416487
 C   -6.510464155020   -0.013495798601   -1.393560000000
 H   -6.492103335493   -0.014040689324   -2.488435921874
 C   -6.510464155020   -0.013495798601    1.393560000000
 H   -6.492103335493   -0.014040689324    2.488435921874
 C   -6.608193398280    1.206675553977   -0.701558994141
 H   -6.713628170159    2.136828308038   -1.267195516911
 C   -6.608193398280    1.206675553977    0.701558994141
 H   -6.713628170159    2.136828308038    1.267195516911
