26

 C    4.175856850836    1.229792171342    0.701720000000
 H    4.272416850836    2.160972171342    1.266840000000
 C    4.175856850836    1.229792171342   -0.701720000000
 H    4.272416850836    2.160972171342   -1.266840000000
 C    4.089796850836    0.008482171342    1.393560000000
 H    4.071436850836    0.009022171342    2.488430000000
 C    4.089796850836    0.008482171342   -1.393560000000
 H    4.071436850836    0.009022171342   -2.488430000000
 C    4.187526850836   -1.211697828658    0.701560000000
 H    4.292966850836   -2.141847828658    1.267200000000
 C    4.187526850836   -1.211697828658   -0.701560000000
 H    4.292966850836   -2.141847828658   -1.267200000000
RB    1.345326850836    3.053822171342    0.000000000000
RB    1.368966850836   -3.048197828658    0.000000000000
 C   -7.128891958243   -1.235906259054   -0.701715247864
 H   -7.225462048156   -2.167086162413   -1.266838416487
 C   -7.128891958243   -1.235906259054    0.701715247864
 H   -7.225462048156   -2.167086162413    1.266838416487
 C   -7.042835103954   -0.014599296147   -1.393560000000
 H   -7.024474284428   -0.015144186869   -2.488435921874
 C   -7.042835103954   -0.014599296147    1.393560000000
 H   -7.024474284428   -0.015144186869    2.488435921874
 C   -7.140564347214    1.205572056431   -0.701558994141
 H   -7.245999119093    2.135724810493   -1.267195516911
 C   -7.140564347214    1.205572056431    0.701558994141
 H   -7.245999119093    2.135724810493    1.267195516911
