26

 C    4.247697228249    1.229941081947    0.701720000000
 H    4.344257228249    2.161121081947    1.266840000000
 C    4.247697228249    1.229941081947   -0.701720000000
 H    4.344257228249    2.161121081947   -1.266840000000
 C    4.161637228249    0.008631081947    1.393560000000
 H    4.143277228249    0.009171081947    2.488430000000
 C    4.161637228249    0.008631081947   -1.393560000000
 H    4.143277228249    0.009171081947   -2.488430000000
 C    4.259367228249   -1.211548918053    0.701560000000
 H    4.364807228249   -2.141698918053    1.267200000000
 C    4.259367228249   -1.211548918053   -0.701560000000
 H    4.364807228249   -2.141698918053   -1.267200000000
RB    1.417167228249    3.053971081947    0.000000000000
RB    1.440807228249   -3.048048918053    0.000000000000
 C   -7.357050936358   -1.236379186573   -0.701715247864
 H   -7.453621026271   -2.167559089932   -1.266838416487
 C   -7.357050936358   -1.236379186573    0.701715247864
 H   -7.453621026271   -2.167559089932    1.266838416487
 C   -7.270994082069   -0.015072223666   -1.393560000000
 H   -7.252633262543   -0.015617114389   -2.488435921874
 C   -7.270994082069   -0.015072223666    1.393560000000
 H   -7.252633262543   -0.015617114389    2.488435921874
 C   -7.368723325329    1.205099128912   -0.701558994141
 H   -7.474158097208    2.135251882973   -1.267195516911
 C   -7.368723325329    1.205099128912    0.701558994141
 H   -7.474158097208    2.135251882973    1.267195516911
