26

 C    4.295590813192    1.230040355683    0.701720000000
 H    4.392150813192    2.161220355683    1.266840000000
 C    4.295590813192    1.230040355683   -0.701720000000
 H    4.392150813192    2.161220355683   -1.266840000000
 C    4.209530813192    0.008730355683    1.393560000000
 H    4.191170813192    0.009270355683    2.488430000000
 C    4.209530813192    0.008730355683   -1.393560000000
 H    4.191170813192    0.009270355683   -2.488430000000
 C    4.307260813192   -1.211449644317    0.701560000000
 H    4.412700813192   -2.141599644317    1.267200000000
 C    4.307260813192   -1.211449644317   -0.701560000000
 H    4.412700813192   -2.141599644317   -1.267200000000
RB    1.465060813192    3.054070355683    0.000000000000
RB    1.488700813192   -3.047949644317    0.000000000000
 C   -7.509156921768   -1.236694471586   -0.701715247864
 H   -7.605727011681   -2.167874374945   -1.266838416487
 C   -7.509156921768   -1.236694471586    0.701715247864
 H   -7.605727011681   -2.167874374945    1.266838416487
 C   -7.423100067479   -0.015387508679   -1.393560000000
 H   -7.404739247953   -0.015932399402   -2.488435921874
 C   -7.423100067479   -0.015387508679    1.393560000000
 H   -7.404739247953   -0.015932399402    2.488435921874
 C   -7.520829310739    1.204783843899   -0.701558994141
 H   -7.626264082618    2.134936597960   -1.267195516911
 C   -7.520829310739    1.204783843899    0.701558994141
 H   -7.626264082618    2.134936597960    1.267195516911
