26

 C    4.343484398134    1.230139629420    0.701720000000
 H    4.440044398134    2.161319629420    1.266840000000
 C    4.343484398134    1.230139629420   -0.701720000000
 H    4.440044398134    2.161319629420   -1.266840000000
 C    4.257424398134    0.008829629420    1.393560000000
 H    4.239064398134    0.009369629420    2.488430000000
 C    4.257424398134    0.008829629420   -1.393560000000
 H    4.239064398134    0.009369629420   -2.488430000000
 C    4.355154398134   -1.211350370580    0.701560000000
 H    4.460594398134   -2.141500370580    1.267200000000
 C    4.355154398134   -1.211350370580   -0.701560000000
 H    4.460594398134   -2.141500370580   -1.267200000000
RB    1.512954398134    3.054169629420    0.000000000000
RB    1.536594398134   -3.047850370580    0.000000000000
 C   -7.661262907178   -1.237009756599   -0.701715247864
 H   -7.757832997090   -2.168189659958   -1.266838416487
 C   -7.661262907178   -1.237009756599    0.701715247864
 H   -7.757832997090   -2.168189659958    1.266838416487
 C   -7.575206052889   -0.015702793692   -1.393560000000
 H   -7.556845233362   -0.016247684415   -2.488435921874
 C   -7.575206052889   -0.015702793692    1.393560000000
 H   -7.556845233362   -0.016247684415    2.488435921874
 C   -7.672935296149    1.204468558886   -0.701558994141
 H   -7.778370068028    2.134621312947   -1.267195516911
 C   -7.672935296149    1.204468558886    0.701558994141
 H   -7.778370068028    2.134621312947    1.267195516911
