26

 C    4.391377983076    1.230238903157    0.701720000000
 H    4.487937983076    2.161418903157    1.266840000000
 C    4.391377983076    1.230238903157   -0.701720000000
 H    4.487937983076    2.161418903157   -1.266840000000
 C    4.305317983076    0.008928903157    1.393560000000
 H    4.286957983076    0.009468903157    2.488430000000
 C    4.305317983076    0.008928903157   -1.393560000000
 H    4.286957983076    0.009468903157   -2.488430000000
 C    4.403047983076   -1.211251096843    0.701560000000
 H    4.508487983076   -2.141401096843    1.267200000000
 C    4.403047983076   -1.211251096843   -0.701560000000
 H    4.508487983076   -2.141401096843   -1.267200000000
RB    1.560847983076    3.054268903157    0.000000000000
RB    1.584487983076   -3.047751096843    0.000000000000
 C   -7.813368892588   -1.237325041612   -0.701715247864
 H   -7.909938982500   -2.168504944971   -1.266838416487
 C   -7.813368892588   -1.237325041612    0.701715247864
 H   -7.909938982500   -2.168504944971    1.266838416487
 C   -7.727312038299   -0.016018078705   -1.393560000000
 H   -7.708951218772   -0.016562969428   -2.488435921874
 C   -7.727312038299   -0.016018078705    1.393560000000
 H   -7.708951218772   -0.016562969428    2.488435921874
 C   -7.825041281559    1.204153273873   -0.701558994141
 H   -7.930476053438    2.134306027934   -1.267195516911
 C   -7.825041281559    1.204153273873    0.701558994141
 H   -7.930476053438    2.134306027934    1.267195516911
