17

 N   -1.489183747752   -1.341358267499    0.142662738137
 C   -0.278995680908   -0.686152063823    0.146624362105
 N    0.954416733395   -1.284829758285    0.158662647010
 C    1.924839933451   -0.394653616674    0.146790190037
 N    1.721763096038    0.966984516840    0.139955029695
 H    2.525590221289    1.586945056595    0.057967007273
 N    3.250294687688   -0.813328338354    0.068442886802
 H    3.904830893020   -0.281525113954    0.636083663532
 H    3.329099775079   -1.814028482289    0.230026224791
 C    0.462489353721    1.653018220371    0.152908816372
 O    0.434908984616    2.881191305148    0.148820687944
 C   -0.610295772255    0.679324831097    0.159110014312
 N   -1.981369074024    0.865655876410    0.159034829596
 C   -2.474892568535   -0.372947137635    0.148704729931
 H   -3.532390481803   -0.627093759467    0.145758085505
 H   -1.614280744283   -2.347941352731    0.134003187106
NA   -1.490814172644   -1.331696066236   -0.957293617170
