17

 N   -1.489164168518   -1.341474297683    0.155871750750
 C   -0.278976101674   -0.686268094007    0.159833374718
 N    0.954436312629   -1.284945788469    0.171871659623
 C    1.924859512685   -0.394769646858    0.159999202650
 N    1.721782675272    0.966868486656    0.153164042308
 H    2.525609800523    1.586829026411    0.071176019886
 N    3.250314266922   -0.813444368538    0.081651899415
 H    3.904850472254   -0.281641144138    0.649292676145
 H    3.329119354313   -1.814144512473    0.243235237404
 C    0.462508932955    1.652902190187    0.166117828985
 O    0.434928563850    2.881075274964    0.162029700557
 C   -0.610276193021    0.679208800913    0.172319026925
 N   -1.981349494790    0.865539846226    0.172243842209
 C   -2.474872989301   -0.373063167819    0.161913742544
 H   -3.532370902569   -0.627209789651    0.158967098118
 H   -1.614261165049   -2.348057382915    0.147212199719
NA   -1.490942813855   -1.330933714487   -1.044080636858
