17

 N   -1.489085851582   -1.341938418420    0.208707801203
 C   -0.278897784738   -0.686732214744    0.212669425171
 N    0.954514629565   -1.285409909206    0.224707710076
 C    1.924937829621   -0.395233767595    0.212835253103
 N    1.721860992208    0.966404365919    0.206000092761
 H    2.525688117459    1.586364905674    0.124012070339
 N    3.250392583858   -0.813908489275    0.134487949868
 H    3.904928789190   -0.282105264875    0.702128726598
 H    3.329197671249   -1.814608633210    0.296071287857
 C    0.462587249891    1.652438069450    0.218953879438
 O    0.435006880786    2.880611154227    0.214865751010
 C   -0.610197876085    0.678744680176    0.225155077378
 N   -1.981271177854    0.865075725489    0.225079892662
 C   -2.474794672365   -0.373527288556    0.214749792997
 H   -3.532292585633   -0.627673910388    0.211803148571
 H   -1.614182848113   -2.348521503652    0.200048250172
NA   -1.491457378698   -1.327884307491   -1.391228715608
