17

 N   -1.489046693114   -1.342170478788    0.235125826429
 C   -0.278858626270   -0.686964275112    0.239087450397
 N    0.954553788033   -1.285641969574    0.251125735302
 C    1.924976988089   -0.395465827963    0.239253278329
 N    1.721900150676    0.966172305551    0.232418117987
 H    2.525727275927    1.586132845306    0.150430095565
 N    3.250431742326   -0.814140549643    0.160905975094
 H    3.904967947658   -0.282337325243    0.728546751824
 H    3.329236829717   -1.814840693578    0.322489313083
 C    0.462626408359    1.652206009082    0.245371904664
 O    0.435046039254    2.880379093859    0.241283776236
 C   -0.610158717617    0.678512619808    0.251573102604
 N   -1.981232019386    0.864843665121    0.251497917888
 C   -2.474755513897   -0.373759348924    0.241167818223
 H   -3.532253427165   -0.627905970756    0.238221173797
 H   -1.614143689645   -2.348753564020    0.226466275398
NA   -1.491714661119   -1.326359603993   -1.564802754983
