17

 N   -1.487441195919   -1.351684953880    1.318264860704
 C   -0.277253129075   -0.696478750204    1.322226484672
 N    0.956159285228   -1.295156444666    1.334264769577
 C    1.926582485284   -0.404980303055    1.322392312604
 N    1.723505647871    0.956657830459    1.315557152262
 H    2.527332773122    1.576618370214    1.233569129840
 N    3.252037239521   -0.823655024735    1.244045009369
 H    3.906573444853   -0.291851800335    1.811685786099
 H    3.330842326912   -1.824355168670    1.405628347358
 C    0.464231905554    1.642691533990    1.328510938939
 O    0.436651536449    2.870864618767    1.324422810511
 C   -0.608553220422    0.668998144716    1.334712136879
 N   -1.979626522191    0.855329190029    1.334636952163
 C   -2.473150016702   -0.383273824016    1.324306852498
 H   -3.530647929970   -0.637420445848    1.321360208072
 H   -1.612538192450   -2.358268039112    1.309605309673
NA   -1.502263240392   -1.263846760574   -8.681338369364
