17

 N   -1.489007534646   -1.342402539156    0.261543851655
 C   -0.278819467802   -0.687196335480    0.265505475623
 N    0.954592946501   -1.285874029942    0.277543760528
 C    1.925016146557   -0.395697888331    0.265671303555
 N    1.721939309144    0.965940245183    0.258836143213
 H    2.525766434395    1.585900784938    0.176848120791
 N    3.250470900794   -0.814372610011    0.187324000320
 H    3.905007106126   -0.282569385611    0.754964777050
 H    3.329275988185   -1.815072753946    0.348907338309
 C    0.462665566827    1.651973948714    0.271789929890
 O    0.435085197722    2.880147033491    0.267701801462
 C   -0.610119559149    0.678280559440    0.277991127830
 N   -1.981192860918    0.864611604753    0.277915943114
 C   -2.474716355429   -0.373991409292    0.267585843449
 H   -3.532214268697   -0.628138031124    0.264639199023
 H   -1.614104531177   -2.348985624388    0.252884300624
NA   -1.491971943540   -1.324834900495   -1.738376794359
