17

 N   -1.488909638475   -1.342982690076    0.327588914721
 C   -0.278721571631   -0.687776486400    0.331550538689
 N    0.954690842672   -1.286454180862    0.343588823594
 C    1.925114042728   -0.396278039251    0.331716366621
 N    1.722037205315    0.965360094263    0.324881206279
 H    2.525864330566    1.585320634018    0.242893183857
 N    3.250568796965   -0.814952760931    0.253369063386
 H    3.905105002297   -0.283149536531    0.821009840116
 H    3.329373884356   -1.815652904866    0.414952401375
 C    0.462763462998    1.651393797794    0.337834992956
 O    0.435183093893    2.879566882571    0.333746864528
 C   -0.610021662978    0.677700408520    0.344036190896
 N   -1.981094964747    0.864031453833    0.343961006180
 C   -2.474618459258   -0.374571560212    0.333630906515
 H   -3.532116372526   -0.628718182044    0.330684262089
 H   -1.614006635006   -2.349565775308    0.318929363690
NA   -1.492615149593   -1.321023141750   -2.172311892796
