17

 N   -1.488811742305   -1.343562840996    0.393633977786
 C   -0.278623675461   -0.688356637320    0.397595601754
 N    0.954788738842   -1.287034331782    0.409633886659
 C    1.925211938898   -0.396858190171    0.397761429686
 N    1.722135101485    0.964779943343    0.390926269344
 H    2.525962226736    1.584740483098    0.308938246922
 N    3.250666693135   -0.815532911851    0.319414126451
 H    3.905202898467   -0.283729687451    0.887054903181
 H    3.329471780526   -1.816233055786    0.480997464440
 C    0.462861359168    1.650813646874    0.403880056021
 O    0.435280990063    2.878986731651    0.399791927593
 C   -0.609923766808    0.677120257600    0.410081253961
 N   -1.980997068577    0.863451302913    0.410006069245
 C   -2.474520563088   -0.375151711132    0.399675969580
 H   -3.532018476356   -0.629298332964    0.396729325154
 H   -1.613908738836   -2.350145926228    0.384974426755
NA   -1.493258355647   -1.317211383005   -2.606246991234
