17

 N   -1.488733425368   -1.344026961733    0.446470028239
 C   -0.278545358524   -0.688820758057    0.450431652207
 N    0.954867055779   -1.287498452519    0.462469937112
 C    1.925290255835   -0.397322310908    0.450597480139
 N    1.722213418422    0.964315822606    0.443762319797
 H    2.526040543673    1.584276362361    0.361774297375
 N    3.250745010072   -0.815997032588    0.372250176904
 H    3.905281215404   -0.284193808188    0.939890953634
 H    3.329550097463   -1.816697176523    0.533833514893
 C    0.462939676105    1.650349526137    0.456716106474
 O    0.435359307000    2.878522610914    0.452627978046
 C   -0.609845449871    0.676656136863    0.462917304414
 N   -1.980918751640    0.862987182176    0.462842119698
 C   -2.474442246151   -0.375615831869    0.452512020033
 H   -3.531940159419   -0.629762453701    0.449565375607
 H   -1.613830421899   -2.350610046965    0.437810477208
NA   -1.493772920489   -1.314161976009   -2.953395069985
