17

 N   -1.488635529198   -1.344607112653    0.512515091304
 C   -0.278447462354   -0.689400908977    0.516476715272
 N    0.954964951949   -1.288078603439    0.528515000177
 C    1.925388152005   -0.397902461828    0.516642543204
 N    1.722311314592    0.963735671686    0.509807382862
 H    2.526138439843    1.583696211441    0.427819360440
 N    3.250842906242   -0.816577183508    0.438295239969
 H    3.905379111574   -0.284773959108    1.005936016699
 H    3.329647993633   -1.817277327443    0.599878577958
 C    0.463037572275    1.649769375217    0.522761169539
 O    0.435457203170    2.877942459994    0.518673041111
 C   -0.609747553701    0.676075985943    0.528962367479
 N   -1.980820855470    0.862407031256    0.528887182763
 C   -2.474344349981   -0.376195982789    0.518557083098
 H   -3.531842263249   -0.630342604621    0.515610438672
 H   -1.613732525729   -2.351190197885    0.503855540273
NA   -1.494416126542   -1.310350217264   -3.387330168422
