17

 N   -1.488615949964   -1.344723142837    0.525724103917
 C   -0.278427883120   -0.689516939161    0.529685727885
 N    0.954984531183   -1.288194633623    0.541724012790
 C    1.925407731239   -0.398018492012    0.529851555817
 N    1.722330893826    0.963619641502    0.523016395475
 H    2.526158019077    1.583580181257    0.441028373053
 N    3.250862485476   -0.816693213692    0.451504252582
 H    3.905398690808   -0.284889989292    1.019145029312
 H    3.329667572867   -1.817393357627    0.613087590571
 C    0.463057151509    1.649653345033    0.535970182152
 O    0.435476782404    2.877826429810    0.531882053724
 C   -0.609727974467    0.675959955759    0.542171380092
 N   -1.980801276236    0.862291001072    0.542096195376
 C   -2.474324770747   -0.376312012973    0.531766095711
 H   -3.531822684015   -0.630458634805    0.528819451285
 H   -1.613712946495   -2.351306228069    0.517064552886
NA   -1.494544767753   -1.309587865515   -3.474117188110
