17

 N   -1.488537633028   -1.345187263573    0.578560154370
 C   -0.278349566184   -0.689981059897    0.582521778338
 N    0.955062848119   -1.288658754359    0.594560063243
 C    1.925486048175   -0.398482612748    0.582687606270
 N    1.722409210762    0.963155520766    0.575852445928
 H    2.526236336013    1.583116060521    0.493864423506
 N    3.250940802412   -0.817157334428    0.504340303035
 H    3.905477007744   -0.285354110028    1.071981079765
 H    3.329745889803   -1.817857478363    0.665923641024
 C    0.463135468445    1.649189224297    0.588806232605
 O    0.435555099340    2.877362309074    0.584718104177
 C   -0.609649657531    0.675495835023    0.595007430545
 N   -1.980722959300    0.861826880336    0.594932245829
 C   -2.474246453811   -0.376776133709    0.584602146164
 H   -3.531744367079   -0.630922755541    0.581655501738
 H   -1.613634629559   -2.351770348805    0.569900603339
NA   -1.495059332596   -1.306538458518   -3.821265266860
