17

 N   -1.488518053794   -1.345303293757    0.591769166983
 C   -0.278329986950   -0.690097090081    0.595730790951
 N    0.955082427353   -1.288774784543    0.607769075856
 C    1.925505627409   -0.398598642932    0.595896618883
 N    1.722428789996    0.963039490582    0.589061458541
 H    2.526255915247    1.583000030337    0.507073436119
 N    3.250960381646   -0.817273364612    0.517549315648
 H    3.905496586978   -0.285470140212    1.085190092378
 H    3.329765469037   -1.817973508547    0.679132653637
 C    0.463155047679    1.649073194113    0.602015245218
 O    0.435574678574    2.877246278890    0.597927116790
 C   -0.609630078297    0.675379804839    0.608216443158
 N   -1.980703380066    0.861710850152    0.608141258442
 C   -2.474226874577   -0.376892163893    0.597811158777
 H   -3.531724787845   -0.631038785725    0.594864514351
 H   -1.613615050325   -2.351886378989    0.583109615952
NA   -1.495187973806   -1.305776106769   -3.908052286548
