17

 N   -1.488478895325   -1.345535354125    0.618187192209
 C   -0.278290828481   -0.690329150449    0.622148816177
 N    0.955121585822   -1.289006844911    0.634187101082
 C    1.925544785878   -0.398830703300    0.622314644109
 N    1.722467948465    0.962807430214    0.615479483767
 H    2.526295073716    1.582767969969    0.533491461345
 N    3.250999540115   -0.817505424980    0.543967340874
 H    3.905535745447   -0.285702200580    1.111608117604
 H    3.329804627506   -1.818205568915    0.705550678863
 C    0.463194206148    1.648841133745    0.628433270444
 O    0.435613837043    2.877014218522    0.624345142016
 C   -0.609590919828    0.675147744471    0.634634468384
 N   -1.980664221597    0.861478789784    0.634559283668
 C   -2.474187716108   -0.377124224261    0.624229184003
 H   -3.531685629376   -0.631270846093    0.621282539577
 H   -1.613575891856   -2.352118439357    0.609527641178
NA   -1.495445256228   -1.304251403271   -4.081626325923
