17

 N   -1.488459316091   -1.345651384309    0.631396204822
 C   -0.278271249247   -0.690445180633    0.635357828790
 N    0.955141165056   -1.289122875095    0.647396113695
 C    1.925564365112   -0.398946733484    0.635523656722
 N    1.722487527699    0.962691400030    0.628688496380
 H    2.526314652950    1.582651939785    0.546700473958
 N    3.251019119349   -0.817621455164    0.557176353487
 H    3.905555324681   -0.285818230764    1.124817130217
 H    3.329824206740   -1.818321599099    0.718759691476
 C    0.463213785382    1.648725103561    0.641642283057
 O    0.435633416277    2.876898188338    0.637554154629
 C   -0.609571340594    0.675031714287    0.647843480997
 N   -1.980644642363    0.861362759600    0.647768296281
 C   -2.474168136874   -0.377240254445    0.637438196616
 H   -3.531666050142   -0.631386876277    0.634491552190
 H   -1.613556312622   -2.352234469541    0.622736653791
NA   -1.495573897438   -1.303489051522   -4.168413345610
