17

 N   -1.488380999155   -1.346115505046    0.684232255275
 C   -0.278192932311   -0.690909301370    0.688193879243
 N    0.955219481992   -1.289586995832    0.700232164148
 C    1.925642682048   -0.399410854221    0.688359707175
 N    1.722565844635    0.962227279293    0.681524546833
 H    2.526392969886    1.582187819048    0.599536524411
 N    3.251097436285   -0.818085575901    0.610012403940
 H    3.905633641617   -0.286282351501    1.177653180670
 H    3.329902523676   -1.818785719836    0.771595741929
 C    0.463292102318    1.648260982824    0.694478333510
 O    0.435711733213    2.876434067601    0.690390205082
 C   -0.609493023658    0.674567593550    0.700679531450
 N   -1.980566325427    0.860898638863    0.700604346734
 C   -2.474089819938   -0.377704375182    0.690274247069
 H   -3.531587733206   -0.631850997014    0.687327602643
 H   -1.613477995686   -2.352698590278    0.675572704244
NA   -1.496088462281   -1.300439644526   -4.515561424361
