17

 N   -1.488322261453   -1.346463595598    0.723859293114
 C   -0.278134194609   -0.691257391922    0.727820917082
 N    0.955278219694   -1.289935086384    0.739859201987
 C    1.925701419750   -0.399758944773    0.727986745014
 N    1.722624582337    0.961879188741    0.721151584672
 H    2.526451707588    1.581839728496    0.639163562250
 N    3.251156173987   -0.818433666453    0.649639441779
 H    3.905692379319   -0.286630442053    1.217280218509
 H    3.329961261378   -1.819133810388    0.811222779768
 C    0.463350840020    1.647912892272    0.734105371349
 O    0.435770470915    2.876085977049    0.730017242921
 C   -0.609434285956    0.674219502998    0.740306569289
 N   -1.980507587725    0.860550548311    0.740231384573
 C   -2.474031082236   -0.378052465734    0.729901284908
 H   -3.531528995504   -0.632199087566    0.726954640482
 H   -1.613419257984   -2.353046680830    0.715199742083
NA   -1.496474385913   -1.298152589279   -4.775922483423
