17

 N   -1.488224365282   -1.347043746518    0.789904356180
 C   -0.278036298438   -0.691837542842    0.793865980148
 N    0.955376115865   -1.290515237304    0.805904265053
 C    1.925799315921   -0.400339095693    0.794031808080
 N    1.722722478508    0.961299037821    0.787196647738
 H    2.526549603759    1.581259577576    0.705208625316
 N    3.251254070158   -0.819013817373    0.715684504845
 H    3.905790275490   -0.287210592973    1.283325281575
 H    3.330059157549   -1.819713961308    0.877267842834
 C    0.463448736191    1.647332741352    0.800150434415
 O    0.435868367086    2.875505826129    0.796062305987
 C   -0.609336389785    0.673639352078    0.806351632355
 N   -1.980409691554    0.859970397391    0.806276447639
 C   -2.473933186065   -0.378632616654    0.795946347974
 H   -3.531431099333   -0.632779238486    0.792999703548
 H   -1.613321361813   -2.353626831750    0.781244805149
NA   -1.497117591966   -1.294340830534   -5.209857581861
