17

 N   -1.488185206814   -1.347275806886    0.816322381406
 C   -0.277997139970   -0.692069603210    0.820284005374
 N    0.955415274333   -1.290747297672    0.832322290279
 C    1.925838474389   -0.400571156061    0.820449833306
 N    1.722761636976    0.961066977453    0.813614672964
 H    2.526588762227    1.581027517208    0.731626650542
 N    3.251293228626   -0.819245877741    0.742102530071
 H    3.905829433958   -0.287442653341    1.309743306801
 H    3.330098316017   -1.819946021676    0.903685868060
 C    0.463487894659    1.647100680984    0.826568459641
 O    0.435907525554    2.875273765761    0.822480331213
 C   -0.609297231317    0.673407291710    0.832769657581
 N   -1.980370533086    0.859738337023    0.832694472865
 C   -2.473894027597   -0.378864677022    0.822364373200
 H   -3.531391940865   -0.633011298854    0.819417728774
 H   -1.613282203345   -2.353858892118    0.807662830375
NA   -1.497374874387   -1.292816127036   -5.383431621236
