17

 N   -1.488146048346   -1.347507867254    0.842740406632
 C   -0.277957981502   -0.692301663578    0.846702030600
 N    0.955454432801   -1.290979358040    0.858740315505
 C    1.925877632857   -0.400803216429    0.846867858532
 N    1.722800795444    0.960834917085    0.840032698190
 H    2.526627920695    1.580795456840    0.758044675768
 N    3.251332387094   -0.819477938109    0.768520555297
 H    3.905868592426   -0.287674713709    1.336161332027
 H    3.330137474485   -1.820178082044    0.930103893286
 C    0.463527053127    1.646868620616    0.852986484867
 O    0.435946684022    2.875041705393    0.848898356439
 C   -0.609258072849    0.673175231342    0.859187682807
 N   -1.980331374618    0.859506276655    0.859112498091
 C   -2.473854869129   -0.379096737390    0.848782398426
 H   -3.531352782397   -0.633243359222    0.845835754000
 H   -1.613243044877   -2.354090952486    0.834080855601
NA   -1.497632156808   -1.291291423538   -5.557005660612
