17

 N   -1.488028572941   -1.348204048359    0.921994482311
 C   -0.277840506097   -0.692997844683    0.925956106279
 N    0.955571908206   -1.291675539145    0.937994391184
 C    1.925995108262   -0.401499397534    0.926121934211
 N    1.722918270849    0.960138735980    0.919286773869
 H    2.526745396100    1.580099275735    0.837298751447
 N    3.251449862499   -0.820174119214    0.847774630976
 H    3.905986067831   -0.288370894814    1.415415407706
 H    3.330254949890   -1.820874263149    1.009357968965
 C    0.463644528532    1.646172439511    0.932240560546
 O    0.436064159427    2.874345524288    0.928152432118
 C   -0.609140597444    0.672479050237    0.938441758486
 N   -1.980213899213    0.858810095550    0.938366573770
 C   -2.473737393724   -0.379792918495    0.928036474105
 H   -3.531235306992   -0.633939540327    0.925089829679
 H   -1.613125569472   -2.354787133591    0.913334931280
NA   -1.498404004072   -1.286717313044   -6.077727778737
