17

 N   -1.487989414473   -1.348436108727    0.948412507537
 C   -0.277801347629   -0.693229905051    0.952374131505
 N    0.955611066674   -1.291907599513    0.964412416410
 C    1.926034266730   -0.401731457902    0.952539959437
 N    1.722957429317    0.959906675612    0.945704799095
 H    2.526784554568    1.579867215367    0.863716776673
 N    3.251489020967   -0.820406179582    0.874192656202
 H    3.906025226299   -0.288602955182    1.441833432932
 H    3.330294108358   -1.821106323517    1.035775994191
 C    0.463683687000    1.645940379143    0.958658585772
 O    0.436103317895    2.874113463920    0.954570457344
 C   -0.609101438976    0.672246989869    0.964859783712
 N   -1.980174740745    0.858578035182    0.964784598996
 C   -2.473698235256   -0.380024978863    0.954454499331
 H   -3.531196148524   -0.634171600695    0.951507854905
 H   -1.613086411004   -2.355019193959    0.939752956506
NA   -1.498661286494   -1.285192609546   -6.251301818112
