17

 N   -1.487969835239   -1.348552138911    0.961621520150
 C   -0.277781768395   -0.693345935235    0.965583144118
 N    0.955630645908   -1.292023629697    0.977621429023
 C    1.926053845964   -0.401847488086    0.965748972050
 N    1.722977008551    0.959790645428    0.958913811708
 H    2.526804133802    1.579751185183    0.876925789286
 N    3.251508600201   -0.820522209766    0.887401668815
 H    3.906044805533   -0.288718985366    1.455042445545
 H    3.330313687592   -1.821222353701    1.048985006804
 C    0.463703266234    1.645824348959    0.971867598385
 O    0.436122897129    2.873997433736    0.967779469957
 C   -0.609081859742    0.672130959685    0.978068796325
 N   -1.980155161511    0.858462004998    0.977993611609
 C   -2.473678656022   -0.380141009047    0.967663511944
 H   -3.531176569290   -0.634287630879    0.964716867518
 H   -1.613066831770   -2.355135224143    0.952961969119
NA   -1.498789927704   -1.284430257797   -6.338088837800
