17

 N   -1.487950256005   -1.348668169095    0.974830532763
 C   -0.277762189161   -0.693461965419    0.978792156731
 N    0.955650225142   -1.292139659881    0.990830441636
 C    1.926073425198   -0.401963518270    0.978957984663
 N    1.722996587785    0.959674615244    0.972122824321
 H    2.526823713036    1.579635154999    0.890134801899
 N    3.251528179435   -0.820638239950    0.900610681428
 H    3.906064384767   -0.288835015550    1.468251458158
 H    3.330333266826   -1.821338383885    1.062194019417
 C    0.463722845468    1.645708318775    0.985076610998
 O    0.436142476363    2.873881403552    0.980988482570
 C   -0.609062280508    0.672014929501    0.991277808938
 N   -1.980135582277    0.858345974814    0.991202624222
 C   -2.473659076788   -0.380257039231    0.980872524557
 H   -3.531156990056   -0.634403661063    0.977925880131
 H   -1.613047252536   -2.355251254327    0.966170981732
NA   -1.498918568915   -1.283667906048   -6.424875857487
