17

 N   -1.487891518303   -1.349016259647    1.014457570603
 C   -0.277703451459   -0.693810055971    1.018419194571
 N    0.955708962844   -1.292487750433    1.030457479476
 C    1.926132162900   -0.402311608822    1.018585022503
 N    1.723055325487    0.959326524692    1.011749862161
 H    2.526882450738    1.579287064447    0.929761839739
 N    3.251586917137   -0.820986330502    0.940237719268
 H    3.906123122469   -0.289183106102    1.507878495998
 H    3.330392004528   -1.821686474437    1.101821057257
 C    0.463781583170    1.645360228223    1.024703648838
 O    0.436201214065    2.873533313000    1.020615520410
 C   -0.609003542806    0.671666838949    1.030904846778
 N   -1.980076844575    0.857997884262    1.030829662062
 C   -2.473600339086   -0.380605129783    1.020499562397
 H   -3.531098252354   -0.634751751615    1.017552917971
 H   -1.612988514834   -2.355599344879    1.005798019572
NA   -1.499304492547   -1.281380850801   -6.685236916550
