17

 N   -1.487852359835   -1.349248320015    1.040875595829
 C   -0.277664292991   -0.694042116339    1.044837219797
 N    0.955748121312   -1.292719810801    1.056875504702
 C    1.926171321368   -0.402543669190    1.045003047729
 N    1.723094483955    0.959094464324    1.038167887387
 H    2.526921609206    1.579055004079    0.956179864965
 N    3.251626075605   -0.821218390870    0.966655744494
 H    3.906162280937   -0.289415166470    1.534296521224
 H    3.330431162996   -1.821918534805    1.128239082483
 C    0.463820741638    1.645128167855    1.051121674064
 O    0.436240372533    2.873301252632    1.047033545636
 C   -0.608964384338    0.671434778581    1.057322872004
 N   -1.980037686107    0.857765823894    1.057247687288
 C   -2.473561180618   -0.380837190151    1.046917587623
 H   -3.531059093886   -0.634983811983    1.043970943197
 H   -1.612949356366   -2.355831405247    1.032216044798
NA   -1.499561774968   -1.279856147303   -6.858810955925
