17

 N   -1.487774042898   -1.349712440751    1.093711646281
 C   -0.277585976054   -0.694506237075    1.097673270249
 N    0.955826438249   -1.293183931537    1.109711555154
 C    1.926249638305   -0.403007789926    1.097839098181
 N    1.723172800892    0.958630343588    1.091003937839
 H    2.526999926143    1.578590883343    1.009015915417
 N    3.251704392542   -0.821682511606    1.019491794946
 H    3.906240597874   -0.289879287206    1.587132571676
 H    3.330509479933   -1.822382655541    1.181075132935
 C    0.463899058575    1.644664047119    1.103957724516
 O    0.436318689470    2.872837131896    1.099869596088
 C   -0.608886067401    0.670970657845    1.110158922456
 N   -1.979959369170    0.857301703158    1.110083737740
 C   -2.473482863681   -0.381301310887    1.099753638075
 H   -3.530980776949   -0.635447932719    1.096806993649
 H   -1.612871039429   -2.356295525983    1.085052095250
NA   -1.500076339811   -1.276806740307   -7.205959034675
