17

 N   -1.487754463664   -1.349828470935    1.106920658894
 C   -0.277566396820   -0.694622267259    1.110882282862
 N    0.955846017483   -1.293299961721    1.122920567767
 C    1.926269217539   -0.403123820110    1.111048110794
 N    1.723192380126    0.958514313404    1.104212950452
 H    2.527019505377    1.578474853159    1.022224928030
 N    3.251723971776   -0.821798541790    1.032700807559
 H    3.906260177108   -0.289995317390    1.600341584289
 H    3.330529059167   -1.822498685725    1.194284145548
 C    0.463918637809    1.644548016935    1.117166737129
 O    0.436338268704    2.872721101712    1.113078608701
 C   -0.608866488167    0.670854627661    1.123367935069
 N   -1.979939789936    0.857185672974    1.123292750353
 C   -2.473463284447   -0.381417341071    1.112962650688
 H   -3.530961197715   -0.635563962903    1.110016006262
 H   -1.612851460195   -2.356411556167    1.098261107863
NA   -1.500204981021   -1.276044388558   -7.292746054363
