17

 N   -1.487676146728   -1.350292591672    1.159756709347
 C   -0.277488079884   -0.695086387996    1.163718333315
 N    0.955924334419   -1.293764082458    1.175756618220
 C    1.926347534475   -0.403587940847    1.163884161247
 N    1.723270697062    0.958050192667    1.157049000905
 H    2.527097822313    1.578010732422    1.075060978483
 N    3.251802288712   -0.822262662527    1.085536858012
 H    3.906338494044   -0.290459438127    1.653177634742
 H    3.330607376103   -1.822962806462    1.247120196001
 C    0.463996954745    1.644083896198    1.170002787582
 O    0.436416585640    2.872256980975    1.165914659154
 C   -0.608788171231    0.670390506924    1.176203985522
 N   -1.979861473000    0.856721552237    1.176128800806
 C   -2.473384967511   -0.381881461808    1.165798701141
 H   -3.530882880779   -0.636028083640    1.162852056715
 H   -1.612773143259   -2.356875676904    1.151097158316
NA   -1.500719545864   -1.272994981562   -7.639894133113
