17

 N   -1.487636988260   -1.350524652040    1.186174734573
 C   -0.277448921416   -0.695318448364    1.190136358541
 N    0.955963492887   -1.293996142826    1.202174643446
 C    1.926386692943   -0.403820001215    1.190302186473
 N    1.723309855530    0.957818132299    1.183467026131
 H    2.527136980781    1.577778672054    1.101479003709
 N    3.251841447180   -0.822494722895    1.111954883238
 H    3.906377652512   -0.290691498495    1.679595659968
 H    3.330646534571   -1.823194866830    1.273538221227
 C    0.464036113213    1.643851835830    1.196420812808
 O    0.436455744108    2.872024920607    1.192332684380
 C   -0.608749012763    0.670158446556    1.202622010748
 N   -1.979822314532    0.856489491869    1.202546826032
 C   -2.473345809043   -0.382113522176    1.192216726367
 H   -3.530843722311   -0.636260144008    1.189270081941
 H   -1.612733984791   -2.357107737272    1.177515183542
NA   -1.500976828285   -1.271470278064   -7.813468172488
