17

 N   -1.487597829792   -1.350756712408    1.212592759799
 C   -0.277409762948   -0.695550508732    1.216554383767
 N    0.956002651355   -1.294228203194    1.228592668672
 C    1.926425851411   -0.404052061583    1.216720211699
 N    1.723349013998    0.957586071931    1.209885051357
 H    2.527176139249    1.577546611686    1.127897028935
 N    3.251880605648   -0.822726783263    1.138372908464
 H    3.906416810980   -0.290923558863    1.706013685194
 H    3.330685693039   -1.823426927198    1.299956246453
 C    0.464075271681    1.643619775462    1.222838838034
 O    0.436494902576    2.871792860239    1.218750709606
 C   -0.608709854295    0.669926386188    1.229040035974
 N   -1.979783156064    0.856257431501    1.228964851258
 C   -2.473306650575   -0.382345582544    1.218634751593
 H   -3.530804563843   -0.636492204376    1.215688107167
 H   -1.612694826323   -2.357339797640    1.203933208768
NA   -1.501234110706   -1.269945574566   -7.987042211864
