17

 N   -1.487578250558   -1.350872742592    1.225801772412
 C   -0.277390183714   -0.695666538916    1.229763396380
 N    0.956022230589   -1.294344233378    1.241801681285
 C    1.926445430645   -0.404168091767    1.229929224312
 N    1.723368593232    0.957470041747    1.223094063970
 H    2.527195718483    1.577430581502    1.141106041548
 N    3.251900184882   -0.822842813447    1.151581921077
 H    3.906436390214   -0.291039589047    1.719222697807
 H    3.330705272273   -1.823542957382    1.313165259066
 C    0.464094850915    1.643503745278    1.236047850647
 O    0.436514481810    2.871676830055    1.231959722219
 C   -0.608690275061    0.669810356004    1.242249048587
 N   -1.979763576830    0.856141401317    1.242173863871
 C   -2.473287071341   -0.382461612728    1.231843764206
 H   -3.530784984609   -0.636608234560    1.228897119780
 H   -1.612675247089   -2.357455827824    1.217142221381
NA   -1.501362751917   -1.269183222817   -8.073829231551
