17

 N   -1.487499933621   -1.351336863328    1.278637822865
 C   -0.277311866777   -0.696130659652    1.282599446833
 N    0.956100547526   -1.294808354114    1.294637731738
 C    1.926523747582   -0.404632212503    1.282765274765
 N    1.723446910169    0.957005921011    1.275930114423
 H    2.527274035420    1.576966460766    1.193942092001
 N    3.251978501819   -0.823306934183    1.204417971530
 H    3.906514707151   -0.291503709783    1.772058748260
 H    3.330783589210   -1.824007078118    1.366001309519
 C    0.464173167852    1.643039624542    1.288883901100
 O    0.436592798747    2.871212709319    1.284795772672
 C   -0.608611958124    0.669346235268    1.295085099040
 N   -1.979685259893    0.855677280581    1.295009914324
 C   -2.473208754404   -0.382925733464    1.284679814659
 H   -3.530706667672   -0.637072355296    1.281733170233
 H   -1.612596930152   -2.357919948560    1.269978271834
NA   -1.501877316760   -1.266133815821   -8.420977310301
