12

 H   -1.759003175911    2.326760652462    3.991112029592
 H   -0.603753175911    1.230520652462    4.756402029592
 H   -1.737113175911    0.597350652462    3.579032029592
 C   -1.095983175911    1.471890652462    3.793912029592
 S    0.146216824089    1.785740652462    2.479702029592
RB   -0.735723175911   -0.990459347538    2.395552029592
RB    0.693056824089    0.469380652462   -3.119127970408
 S   -0.069127804113   -0.844252816928   -1.172339794272
 C    1.173074510489   -0.530404251351   -2.486555284814
 H    1.836097070705   -1.385266520595   -2.683749843989
 H    0.680843467198   -0.289031922325   -3.449042078335
 H    1.814203902656    0.344136608210   -2.271675785889
