12

 H   -1.754746144557    2.378751569324    4.063307266976
 H   -0.599496144557    1.282511569324    4.828597266976
 H   -1.732856144557    0.649341569324    3.651227266976
 C   -1.091726144557    1.523881569324    3.866107266976
 S    0.150473855443    1.837731569324    2.551897266976
RB   -0.731466144557   -0.938468430676    2.467747266976
RB    0.697313855443    0.521371569324   -3.046932733024
 S   -0.088768086859   -1.084118634760   -1.505420468819
 C    1.153434227743   -0.770270069184   -2.819635959362
 H    1.816456787959   -1.625132338428   -3.016830518537
 H    0.661203184452   -0.528897740158   -3.782122752883
 H    1.794563619910    0.104270790377   -2.604756460436
