12

 H   -1.753894738286    2.389149752696    4.077746314453
 H   -0.598644738286    1.292909752696    4.843036314453
 H   -1.732004738286    0.659739752696    3.665666314453
 C   -1.090874738286    1.534279752696    3.880546314453
 S    0.151325261714    1.848129752696    2.566336314453
RB   -0.730614738286   -0.928070247304    2.482186314453
RB    0.698165261714    0.531769752696   -3.032493685547
 S   -0.092696143408   -1.132091798327   -1.572036603729
 C    1.149506171194   -0.818243232750   -2.886252094272
 H    1.812528731410   -1.673105501994   -3.083446653447
 H    0.657275127903   -0.576870903724   -3.848738887792
 H    1.790635563361    0.056297626810   -2.671372595346
