12

 H   -1.753043332015    2.399547936068    4.092185361930
 H   -0.597793332015    1.303307936068    4.857475361930
 H   -1.731153332015    0.670137936068    3.680105361930
 C   -1.090023332015    1.544677936068    3.894985361930
 S    0.152176667985    1.858527936068    2.580775361930
RB   -0.729763332015   -0.917672063932    2.496625361930
RB    0.699016667985    0.542167936068   -3.018054638070
 S   -0.096624199957   -1.180064961894   -1.638652738638
 C    1.145578114645   -0.866216396317   -2.952868229181
 H    1.808600674861   -1.721078665561   -3.150062788356
 H    0.653347071354   -0.624844067291   -3.915355022702
 H    1.786707506811    0.008324463244   -2.737988730255
