12

 H   -1.745380675577    2.493131586420    4.222136789221
 H   -0.590130675577    1.396891586420    4.987426789221
 H   -1.723490675577    0.763721586420    3.810056789221
 C   -1.082360675577    1.638261586420    4.024936789221
 S    0.159839324423    1.952111586420    2.710726789221
RB   -0.722100675577   -0.824088413580    2.626576789221
RB    0.706679324423    0.635751586420   -2.888103210779
 S   -0.131976708901   -1.611823433992   -2.238197952824
 C    1.110225605702   -1.297974868416   -3.552413443367
 H    1.773248165918   -2.152837137659   -3.749608002542
 H    0.617994562411   -1.056602539390   -4.514900236887
 H    1.751354997868   -0.423434008855   -3.337533944441
