12

 H   -1.731758175242    2.659502520379    4.453161548850
 H   -0.576508175242    1.563262520379    5.218451548850
 H   -1.709868175242    0.930092520379    4.041081548850
 C   -1.068738175242    1.804632520379    4.255961548850
 S    0.173461824758    2.118482520379    2.941751548850
RB   -0.708478175242   -0.657717479621    2.857601548850
RB    0.720301824758    0.802122520379   -2.657078451150
 S   -0.194825613688   -2.379394051057   -3.304056111377
 C    1.047376700914   -2.065545485480   -4.618271601919
 H    1.710399261130   -2.920407754724   -4.815466161094
 H    0.555145657623   -1.824173156454   -5.580758395440
 H    1.688506093080   -1.191004625919   -4.403392102994
