12

 H   -1.730055362700    2.680298887124    4.482039643804
 H   -0.574805362700    1.584058887124    5.247329643804
 H   -1.708165362700    0.950888887124    4.069959643804
 C   -1.067035362700    1.825428887124    4.284839643804
 S    0.175164637300    2.139278887124    2.970629643804
RB   -0.706775362700   -0.636921112876    2.886479643804
RB    0.722004637300    0.822918887124   -2.628200356196
 S   -0.202681726787   -2.475340378190   -3.437288381196
 C    1.039520587815   -2.161491812613   -4.751503871738
 H    1.702543148031   -3.016354081857   -4.948698430913
 H    0.547289544524   -1.920119483587   -5.713990665259
 H    1.680649979982   -1.286950953053   -4.536624372813
