12

 H   -1.726649737617    2.721891620613    4.539795833711
 H   -0.571399737617    1.625651620613    5.305085833711
 H   -1.704759737617    0.992481620613    4.127715833711
 C   -1.063629737617    1.867021620613    4.342595833711
 S    0.178570262383    2.180871620613    3.028385833711
RB   -0.703369737617   -0.595328379387    2.944235833711
RB    0.725410262383    0.864511620613   -2.570444166289
 S   -0.218393952984   -2.667233032456   -3.703752920834
 C    1.023808361618   -2.353384466879   -5.017968411377
 H    1.686830921834   -3.208246736123   -5.215162970551
 H    0.531577318327   -2.112012137853   -5.980455204897
 H    1.664937753785   -1.478843607319   -4.803088912451
