12

 H   -1.725798331346    2.732289803986    4.554234881188
 H   -0.570548331346    1.636049803986    5.319524881188
 H   -1.703908331346    1.002879803986    4.142154881188
 C   -1.062778331346    1.877419803986    4.357034881188
 S    0.179421668654    2.191269803986    3.042824881188
RB   -0.702518331346   -0.584930196014    2.958674881188
RB    0.726261668654    0.874909803986   -2.556005118812
 S   -0.222322009533   -2.715206196023   -3.770369055743
 C    1.019880305069   -2.401357630446   -5.084584546286
 H    1.682902865285   -3.256219899690   -5.281779105461
 H    0.527649261778   -2.159985301420   -6.047071339807
 H    1.661009697236   -1.526816770885   -4.869705047360
