12

 H   -1.723244112533    2.763484354103    4.597552023618
 H   -0.567994112533    1.667244354103    5.362842023618
 H   -1.701354112533    1.034074354103    4.185472023618
 C   -1.060224112533    1.908614354103    4.400352023618
 S    0.181975887467    2.222464354103    3.086142023618
RB   -0.699964112533   -0.553735645897    3.001992023618
RB    0.728815887467    0.906104354103   -2.512687976382
 S   -0.234106179181   -2.859125686722   -3.970217460472
 C    1.008096135421   -2.545277121146   -5.284432951015
 H    1.671118695637   -3.400139390389   -5.481627510190
 H    0.515865092131   -2.303904792120   -6.246919744535
 H    1.649225527588   -1.670736261585   -5.069553452089
