12

 H   -1.721541299991    2.784280720848    4.626430118572
 H   -0.566291299991    1.688040720848    5.391720118572
 H   -1.699651299991    1.054870720848    4.214350118572
 C   -1.058521299991    1.929410720848    4.429230118572
 S    0.183678700009    2.243260720848    3.115020118572
RB   -0.698261299991   -0.532939279152    3.030870118572
RB    0.730518700009    0.926900720848   -2.483809881428
 S   -0.241962292279   -2.955072013855   -4.103449730291
 C    1.000240022323   -2.641223448279   -5.417665220834
 H    1.663262582539   -3.496085717522   -5.614859780009
 H    0.508008979032   -2.399851119253   -6.380152014354
 H    1.641369414490   -1.766682588718   -5.202785721908
