12

 H   -1.718987081178    2.815475270965    4.669747261002
 H   -0.563737081178    1.719235270965    5.435037261002
 H   -1.697097081178    1.086065270965    4.257667261002
 C   -1.055967081178    1.960605270965    4.472547261002
 S    0.186232918822    2.274455270965    3.158337261002
RB   -0.695707081178   -0.501744729035    3.074187261002
RB    0.733072918822    0.958095270965   -2.440492738998
 S   -0.253746461927   -3.098991504555   -4.303298135020
 C    0.988455852675   -2.785142938978   -5.617513625562
 H    1.651478412891   -3.640005208222   -5.814708184737
 H    0.496224809384   -2.543770609952   -6.580000419083
 H    1.629585244842   -1.910602079417   -5.402634126636
