12

 H   -1.716432862366    2.846669821082    4.713064403433
 H   -0.561182862366    1.750429821082    5.478354403433
 H   -1.694542862366    1.117259821082    4.300984403433
 C   -1.053412862366    1.991799821082    4.515864403433
 S    0.188787137634    2.305649821082    3.201654403433
RB   -0.693152862366   -0.470550178918    3.117504403433
RB    0.735627137634    0.989289821082   -2.397175596567
 S   -0.265530631575   -3.242910995255   -4.503146539748
 C    0.976671683027   -2.929062429678   -5.817362030291
 H    1.639694243243   -3.783924698922   -6.014556589466
 H    0.484440639737   -2.687690100652   -6.779848823811
 H    1.617801075194   -2.054521570117   -5.602482531365
