12

 H   -1.713027237282    2.888262554572    4.770820593340
 H   -0.557777237282    1.792022554572    5.536110593340
 H   -1.691137237282    1.158852554572    4.358740593340
 C   -1.050007237282    2.033392554572    4.573620593340
 S    0.192192762718    2.347242554572    3.259410593340
RB   -0.689747237282   -0.428957445428    3.175260593340
RB    0.739032762718    1.030882554572   -2.339419406660
 S   -0.281242857772   -3.434803649521   -4.769611079386
 C    0.960959456831   -3.120955083944   -6.083826569929
 H    1.623982017047   -3.975817353188   -6.281021129104
 H    0.468728413540   -2.879582754918   -7.046313363450
 H    1.602088848997   -2.246414224383   -5.868947071003
