12

 H   -1.712175831011    2.898660737944    4.785259640817
 H   -0.556925831011    1.802420737944    5.550549640817
 H   -1.690285831011    1.169250737944    4.373179640817
 C   -1.049155831011    2.043790737944    4.588059640817
 S    0.193044168989    2.357640737944    3.273849640817
RB   -0.688895831011   -0.418559262056    3.189699640817
RB    0.739884168989    1.041280737944   -2.324980359183
 S   -0.285170914321   -3.482776813087   -4.836227214296
 C    0.957031400281   -3.168928247511   -6.150442704839
 H    1.620053960497   -4.023790516754   -6.347637264013
 H    0.464800356990   -2.927555918485   -7.112929498359
 H    1.598160792448   -2.294387387950   -5.935563205913
