12

 H   -1.711324424740    2.909058921317    4.799698688294
 H   -0.556074424740    1.812818921317    5.564988688294
 H   -1.689434424740    1.179648921317    4.387618688294
 C   -1.048304424740    2.054188921317    4.602498688294
 S    0.193895575260    2.368038921317    3.288288688294
RB   -0.688044424740   -0.408161078683    3.204138688294
RB    0.740735575260    1.051678921317   -2.310541311706
 S   -0.289098970870   -3.530749976654   -4.902843349205
 C    0.953103343732   -3.216901411077   -6.217058839748
 H    1.616125903948   -4.071763680321   -6.414253398923
 H    0.460872300441   -2.975529082051   -7.179545633269
 H    1.594232735899   -2.342360551516   -6.002179340822
