12

 H   -1.707918799656    2.950651654806    4.857454878201
 H   -0.552668799656    1.854411654806    5.622744878201
 H   -1.686028799656    1.221241654806    4.445374878201
 C   -1.044898799656    2.095781654806    4.660254878201
 S    0.197301200344    2.409631654806    3.346044878201
RB   -0.684638799656   -0.366568345194    3.261894878201
RB    0.744141200344    1.093271654806   -2.252785121799
 S   -0.304811197067   -3.722642630920   -5.169307888843
 C    0.937391117535   -3.408794065343   -6.483523379386
 H    1.600413677751   -4.263656334587   -6.680717938561
 H    0.445160074244   -3.167421736317   -7.446010172907
 H    1.578520509702   -2.534253205782   -6.268643880460
