12

 H   -1.706215987115    2.971448021551    4.886332973155
 H   -0.550965987115    1.875208021551    5.651622973155
 H   -1.684325987115    1.242038021551    4.474252973155
 C   -1.043195987115    2.116578021551    4.689132973155
 S    0.199004012885    2.430428021551    3.374922973155
RB   -0.682935987115   -0.345771978449    3.290772973155
RB    0.745844012885    1.114068021551   -2.223907026845
 S   -0.312667310166   -3.818588958053   -5.302540158662
 C    0.929535004437   -3.504740392476   -6.616755649205
 H    1.592557564653   -4.359602661720   -6.813950208380
 H    0.437303961146   -3.263368063450   -7.579242442726
 H    1.570664396603   -2.630199532916   -6.401876150279
