12

 H   -1.695999111864    3.096226222020    5.059601542876
 H   -0.540749111864    1.999986222020    5.824891542876
 H   -1.674109111864    1.366816222020    4.647521542876
 C   -1.032979111864    2.241356222020    4.862401542876
 S    0.209220888136    2.555206222020    3.548191542876
RB   -0.672719111864   -0.220993777980    3.464041542876
RB    0.756060888136    1.238846222020   -2.050638457124
 S   -0.359803988756   -4.394266920851   -6.101933777577
 C    0.882398325846   -4.080418355275   -7.416149268120
 H    1.545420886062   -4.935280624518   -7.613343827295
 H    0.390167282555   -3.839046026249   -8.378636061640
 H    1.523527718012   -3.205877495714   -7.201269769194
