12

 H   -1.690890674238    3.158615322254    5.146235827737
 H   -0.535640674238    2.062375322254    5.911525827737
 H   -1.669000674238    1.429205322254    4.734155827737
 C   -1.027870674238    2.303745322254    4.949035827737
 S    0.214329325762    2.617595322254    3.634825827737
RB   -0.667610674238   -0.158604677746    3.550675827737
RB    0.761169325762    1.301235322254   -1.964004172263
 S   -0.383372328052   -4.682105902251   -6.501630587034
 C    0.858829986550   -4.368257336674   -7.815846077577
 H    1.521852546766   -5.223119605918   -8.013040636752
 H    0.366598943260   -4.126885007648   -8.778332871097
 H    1.499959378717   -3.493716477113   -7.600966578651
