12

 H   -1.688336455425    3.189809872372    5.189552970168
 H   -0.533086455425    2.093569872372    5.954842970168
 H   -1.666446455425    1.460399872372    4.777472970168
 C   -1.025316455425    2.334939872372    4.992352970168
 S    0.216883544575    2.648789872372    3.678142970168
RB   -0.665056455425   -0.127410127628    3.593992970168
RB    0.763723544575    1.332429872372   -1.920687029832
 S   -0.395156497699   -4.826025392950   -6.701478991763
 C    0.847045816903   -4.512176827374   -8.015694482305
 H    1.510068377119   -5.367039096617   -8.212889041480
 H    0.354814773612   -4.270804498348   -8.978181275826
 H    1.488175209069   -3.637635967813   -7.800814983380
