12

 H   -1.685782236613    3.221004422489    5.232870112598
 H   -0.530532236613    2.124764422489    5.998160112598
 H   -1.663892236613    1.491594422489    4.820790112598
 C   -1.022762236613    2.366134422489    5.035670112598
 S    0.219437763387    2.679984422489    3.721460112598
RB   -0.662502236613   -0.096215577511    3.637310112598
RB    0.766277763387    1.363624422489   -1.877369887402
 S   -0.406940667347   -4.969944883650   -6.901327396491
 C    0.835261647255   -4.656096318073   -8.215542887034
 H    1.498284207471   -5.510958587317   -8.412737446209
 H    0.343030603964   -4.414723989047   -9.178029680554
 H    1.476391039422   -3.781555458512   -8.000663388108
