12

 H   -1.684930830342    3.231402605861    5.247309160075
 H   -0.529680830342    2.135162605861    6.012599160075
 H   -1.663040830342    1.501992605861    4.835229160075
 C   -1.021910830342    2.376532605861    5.050109160075
 S    0.220289169658    2.690382605861    3.735899160075
RB   -0.661650830342   -0.085817394139    3.651749160075
RB    0.767129169658    1.374022605861   -1.862930839925
 S   -0.410868723896   -5.017918047216   -6.967943531401
 C    0.831333590706   -4.704069481640   -8.282159021943
 H    1.494356150922   -5.558931750883   -8.479353581118
 H    0.339102547415   -4.462697152614   -9.244645815464
 H    1.472462982872   -3.829528622079   -8.067279523018
