10

 C    0.490815077018    1.363464627543    0.353557873142
 H    0.884302077018    2.376593627543    0.353777873142
 C    1.102848077018    0.113356627543    0.353593873142
 H    2.168555077018   -0.105370372457    0.353499873142
 N   -0.864272922982    1.094496627543    0.353545873142
 H   -1.609206922982    1.781146627543    0.353799873142
 C   -1.022078922982   -0.269543372457    0.353600873142
 H   -1.999702922982   -0.745559372457    0.353474873142
 N    0.156837077018   -0.896138372457    0.353589873142
NA    0.156925000407   -0.895948370478   -1.046410111204
