10

 C    0.490810318617    1.363454344664    0.429325658899
 H    0.884297318617    2.376583344664    0.429545658899
 C    1.102843318617    0.113346344664    0.429361658899
 H    2.168550318617   -0.105380655336    0.429267658899
 N   -0.864277681383    1.094486344664    0.429313658899
 H   -1.609211681383    1.781136344664    0.429567658899
 C   -1.022083681383   -0.269553655336    0.429368658899
 H   -1.999707681383   -0.745569655336    0.429242658899
 N    0.156832318617   -0.896148655336    0.429357658899
NA    0.156939082733   -0.895917938646   -1.270642322093
