10

 C    0.490807146351    1.363447489412    0.479837516070
 H    0.884294146351    2.376576489412    0.480057516070
 C    1.102840146351    0.113339489412    0.479873516070
 H    2.168547146351   -0.105387510588    0.479779516070
 N   -0.864280853649    1.094479489412    0.479825516070
 H   -1.609214853649    1.781129489412    0.480079516070
 C   -1.022086853649   -0.269560510588    0.479880516070
 H   -1.999710853649   -0.745576510588    0.479754516070
 N    0.156829146351   -0.896155510588    0.479869516070
NA    0.156948470950   -0.895897650758   -1.420130462685
