10

 C    0.490678669539    1.363169851701    2.525567731498
 H    0.884165669539    2.376298851701    2.525787731498
 C    1.102711669539    0.113061851701    2.525603731498
 H    2.168418669539   -0.105665148299    2.525509731498
 N   -0.864409330461    1.094201851701    2.525555731498
 H   -1.609343330461    1.780851851701    2.525809731498
 C   -1.022215330461   -0.269838148299    2.525610731498
 H   -1.999839330461   -0.745854148299    2.525484731498
 N    0.156700669539   -0.896433148299    2.525599731498
NA    0.157328693749   -0.895075991301   -7.474400156687
