10

 C    0.490805560217    1.363444061786    0.505093444655
 H    0.884292560217    2.376573061786    0.505313444655
 C    1.102838560217    0.113336061786    0.505129444655
 H    2.168545560217   -0.105390938214    0.505035444655
 N   -0.864282439783    1.094476061786    0.505081444655
 H   -1.609216439783    1.781126061786    0.505335444655
 C   -1.022088439783   -0.269563938214    0.505136444655
 H   -1.999712439783   -0.745579938214    0.505010444655
 N    0.156827560217   -0.896158938214    0.505125444655
NA    0.156953165059   -0.895887506814   -1.494874532982
