10

 C    0.490802387950    1.363437206534    0.555605301826
 H    0.884289387950    2.376566206534    0.555825301826
 C    1.102835387950    0.113329206534    0.555641301826
 H    2.168542387950   -0.105397793466    0.555547301826
 N   -0.864285612050    1.094469206534    0.555593301826
 H   -1.609219612050    1.781119206534    0.555847301826
 C   -1.022091612050   -0.269570793466    0.555648301826
 H   -1.999715612050   -0.745586793466    0.555522301826
 N    0.156824387950   -0.896165793466    0.555637301826
NA    0.156962553276   -0.895867218926   -1.644362673574
