10

 C    0.490800801817    1.363433778908    0.580861230412
 H    0.884287801817    2.376562778908    0.581081230412
 C    1.102833801817    0.113325778908    0.580897230412
 H    2.168540801817   -0.105401221092    0.580803230412
 N   -0.864287198183    1.094465778908    0.580849230412
 H   -1.609221198183    1.781115778908    0.581103230412
 C   -1.022093198183   -0.269574221092    0.580904230412
 H   -1.999717198183   -0.745590221092    0.580778230412
 N    0.156822801817   -0.896169221092    0.580893230412
NA    0.156967247385   -0.895857074983   -1.719106743871
