10

 C    0.490797629550    1.363426923656    0.631373087583
 H    0.884284629550    2.376555923656    0.631593087583
 C    1.102830629550    0.113318923656    0.631409087583
 H    2.168537629550   -0.105408076344    0.631315087583
 N   -0.864290370450    1.094458923656    0.631361087583
 H   -1.609224370450    1.781108923656    0.631615087583
 C   -1.022096370450   -0.269581076344    0.631416087583
 H   -1.999720370450   -0.745597076344    0.631290087583
 N    0.156819629550   -0.896176076344    0.631405087583
NA    0.156976635602   -0.895836787095   -1.868594884463
