10

 C    0.490789698882    1.363409785526    0.757652730511
 H    0.884276698882    2.376538785526    0.757872730511
 C    1.102822698882    0.113301785526    0.757688730511
 H    2.168529698882   -0.105425214474    0.757594730511
 N   -0.864298301118    1.094441785526    0.757640730511
 H   -1.609232301118    1.781091785526    0.757894730511
 C   -1.022104301118   -0.269598214474    0.757695730511
 H   -1.999728301118   -0.745614214474    0.757569730511
 N    0.156811698882   -0.896193214474    0.757684730511
NA    0.157000106145   -0.895786067375   -2.242315235945
