10

 C    0.490783354348    1.363396075021    0.858676444853
 H    0.884270354348    2.376525075021    0.858896444853
 C    1.102816354348    0.113288075021    0.858712444853
 H    2.168523354348   -0.105438924979    0.858618444853
 N   -0.864304645652    1.094428075021    0.858664444853
 H   -1.609238645652    1.781078075021    0.858918444853
 C   -1.022110645652   -0.269611924979    0.858719444853
 H   -1.999734645652   -0.745627924979    0.858593444853
 N    0.156805354348   -0.896206924979    0.858708444853
NA    0.157018882580   -0.895745491600   -2.541291517130
