10

 C    0.490781768215    1.363392647395    0.883932373438
 H    0.884268768215    2.376521647395    0.884152373438
 C    1.102814768215    0.113284647395    0.883968373438
 H    2.168521768215   -0.105442352605    0.883874373438
 N   -0.864306231785    1.094424647395    0.883920373438
 H   -1.609240231785    1.781074647395    0.884174373438
 C   -1.022112231785   -0.269615352605    0.883975373438
 H   -1.999736231785   -0.745631352605    0.883849373438
 N    0.156803768215   -0.896210352605    0.883964373438
NA    0.157023576688   -0.895735347656   -2.616035587427
