10

 C    0.490780182081    1.363389219769    0.909188302024
 H    0.884267182081    2.376518219769    0.909408302024
 C    1.102813182081    0.113281219769    0.909224302024
 H    2.168520182081   -0.105445780231    0.909130302024
 N   -0.864307817919    1.094421219769    0.909176302024
 H   -1.609241817919    1.781071219769    0.909430302024
 C   -1.022113817919   -0.269618780231    0.909231302024
 H   -1.999737817919   -0.745634780231    0.909105302024
 N    0.156802182081   -0.896213780231    0.909220302024
NA    0.157028270797   -0.895725203712   -2.690779657723
