10

 C    0.490778595948    1.363385792143    0.934444230609
 H    0.884265595948    2.376514792143    0.934664230609
 C    1.102811595948    0.113277792143    0.934480230609
 H    2.168518595948   -0.105449207857    0.934386230609
 N   -0.864309404052    1.094417792143    0.934432230609
 H   -1.609243404052    1.781067792143    0.934686230609
 C   -1.022115404052   -0.269622207857    0.934487230609
 H   -1.999739404052   -0.745638207857    0.934361230609
 N    0.156800595948   -0.896217207857    0.934476230609
NA    0.157032964906   -0.895715059768   -2.765523728019
