10

 C    0.490775423681    1.363378936891    0.984956087781
 H    0.884262423681    2.376507936891    0.985176087781
 C    1.102808423681    0.113270936891    0.984992087781
 H    2.168515423681   -0.105456063109    0.984898087781
 N   -0.864312576319    1.094410936891    0.984944087781
 H   -1.609246576319    1.781060936891    0.985198087781
 C   -1.022118576319   -0.269629063109    0.984999087781
 H   -1.999742576319   -0.745645063109    0.984873087781
 N    0.156797423681   -0.896224063109    0.984988087781
NA    0.157042353123   -0.895694771880   -2.915011868612
