10

 C    0.490770665281    1.363368654013    1.060723873537
 H    0.884257665281    2.376497654013    1.060943873537
 C    1.102803665281    0.113260654013    1.060759873537
 H    2.168510665281   -0.105466345987    1.060665873537
 N   -0.864317334719    1.094400654013    1.060711873537
 H   -1.609251334719    1.781050654013    1.060965873537
 C   -1.022123334719   -0.269639345987    1.060766873537
 H   -1.999747334719   -0.745655345987    1.060640873537
 N    0.156792665281   -0.896234345987    1.060755873537
NA    0.157056435449   -0.895664340048   -3.139244079501
