10

 C    0.490764320747    1.363354943509    1.161747587879
 H    0.884251320747    2.376483943509    1.161967587879
 C    1.102797320747    0.113246943509    1.161783587879
 H    2.168504320747   -0.105480056491    1.161689587879
 N   -0.864323679253    1.094386943509    1.161735587879
 H   -1.609257679253    1.781036943509    1.161989587879
 C   -1.022129679253   -0.269653056491    1.161790587879
 H   -1.999753679253   -0.745669056491    1.161664587879
 N    0.156786320747   -0.896248056491    1.161779587879
NA    0.157075211883   -0.895623764273   -3.438220360686
