10

 C    0.490754803946    1.363334377752    1.313283159393
 H    0.884241803946    2.376463377752    1.313503159393
 C    1.102787803946    0.113226377752    1.313319159393
 H    2.168494803946   -0.105500622248    1.313225159393
 N   -0.864333196054    1.094366377752    1.313271159393
 H   -1.609267196054    1.781016377752    1.313525159393
 C   -1.022139196054   -0.269673622248    1.313326159393
 H   -1.999763196054   -0.745689622248    1.313200159393
 N    0.156776803946   -0.896268622248    1.313315159393
NA    0.157103376535   -0.895562900609   -3.886684782464
