10

 C    0.490751631679    1.363327522500    1.363795016564
 H    0.884238631679    2.376456522500    1.364015016564
 C    1.102784631679    0.113219522500    1.363831016564
 H    2.168491631679   -0.105507477500    1.363737016564
 N   -0.864336368321    1.094359522500    1.363783016564
 H   -1.609270368321    1.781009522500    1.364037016564
 C   -1.022142368321   -0.269680477500    1.363838016564
 H   -1.999766368321   -0.745696477500    1.363712016564
 N    0.156773631679   -0.896275477500    1.363827016564
NA    0.157112764752   -0.895542612721   -4.036172923057
