10

 C    0.490750045545    1.363324094874    1.389050945149
 H    0.884237045545    2.376453094874    1.389270945149
 C    1.102783045545    0.113216094874    1.389086945149
 H    2.168490045545   -0.105510905126    1.388992945149
 N   -0.864337954455    1.094356094874    1.389038945149
 H   -1.609271954455    1.781006094874    1.389292945149
 C   -1.022143954455   -0.269683905126    1.389093945149
 H   -1.999767954455   -0.745699905126    1.388967945149
 N    0.156772045545   -0.896278905126    1.389082945149
NA    0.157117458861   -0.895532468777   -4.110916993353
