10

 C    0.490743701011    1.363310384370    1.490074659491
 H    0.884230701011    2.376439384370    1.490294659491
 C    1.102776701011    0.113202384370    1.490110659491
 H    2.168483701011   -0.105524615630    1.490016659491
 N   -0.864344298989    1.094342384370    1.490062659491
 H   -1.609278298989    1.780992384370    1.490316659491
 C   -1.022150298989   -0.269697615630    1.490117659491
 H   -1.999774298989   -0.745713615630    1.489991659491
 N    0.156765701011   -0.896292615630    1.490106659491
NA    0.157136235295   -0.895491893002   -4.409893274538
