10

 C    0.490740528744    1.363303529118    1.540586516662
 H    0.884227528744    2.376432529118    1.540806516662
 C    1.102773528744    0.113195529118    1.540622516662
 H    2.168480528744   -0.105531470882    1.540528516662
 N   -0.864347471256    1.094335529118    1.540574516662
 H   -1.609281471256    1.780985529118    1.540828516662
 C   -1.022153471256   -0.269704470882    1.540629516662
 H   -1.999777471256   -0.745720470882    1.540503516662
 N    0.156762528744   -0.896299470882    1.540618516662
NA    0.157145623513   -0.895471605114   -4.559381415131
