10

 C    0.490734184211    1.363289818614    1.641610231005
 H    0.884221184211    2.376418818614    1.641830231005
 C    1.102767184211    0.113181818614    1.641646231005
 H    2.168474184211   -0.105545181386    1.641552231005
 N   -0.864353815789    1.094321818614    1.641598231005
 H   -1.609287815789    1.780971818614    1.641852231005
 C   -1.022159815789   -0.269718181386    1.641653231005
 H   -1.999783815789   -0.745734181386    1.641527231005
 N    0.156756184211   -0.896313181386    1.641642231005
NA    0.157164399947   -0.895431029338   -4.858357696316
