10

 C    0.490732598077    1.363286390987    1.666866159590
 H    0.884219598077    2.376415390987    1.667086159590
 C    1.102765598077    0.113178390987    1.666902159590
 H    2.168472598077   -0.105548609013    1.666808159590
 N   -0.864355401923    1.094318390987    1.666854159590
 H   -1.609289401923    1.780968390987    1.667108159590
 C   -1.022161401923   -0.269721609013    1.666909159590
 H   -1.999785401923   -0.745737609013    1.666783159590
 N    0.156754598077   -0.896316609013    1.666898159590
NA    0.157169094056   -0.895420885394   -4.933101766612
