10

 C    0.490726253543    1.363272680483    1.767889873932
 H    0.884213253543    2.376401680483    1.768109873932
 C    1.102759253543    0.113164680483    1.767925873932
 H    2.168466253543   -0.105562319517    1.767831873932
 N   -0.864361746457    1.094304680483    1.767877873932
 H   -1.609295746457    1.780954680483    1.768131873932
 C   -1.022167746457   -0.269735319517    1.767932873932
 H   -1.999791746457   -0.745751319517    1.767806873932
 N    0.156748253543   -0.896330319517    1.767921873932
NA    0.157187870490   -0.895380309619   -5.232078047798
