10

 C    0.490708806075    1.363234976597    2.045705088373
 H    0.884195806075    2.376363976597    2.045925088373
 C    1.102741806075    0.113126976597    2.045741088373
 H    2.168448806075   -0.105600023403    2.045647088373
 N   -0.864379193925    1.094266976597    2.045693088373
 H   -1.609313193925    1.780916976597    2.045947088373
 C   -1.022185193925   -0.269773023403    2.045748088373
 H   -1.999809193925   -0.745789023403    2.045622088373
 N    0.156730806075   -0.896368023403    2.045737088373
NA    0.157239505685   -0.895268726236   -6.054262821057
