10

 C    0.490697703140    1.363210983214    2.222496588472
 H    0.884184703140    2.376339983214    2.222716588472
 C    1.102730703140    0.113102983214    2.222532588472
 H    2.168437703140   -0.105624016786    2.222438588472
 N   -0.864390296860    1.094242983214    2.222484588472
 H   -1.609324296860    1.780892983214    2.222738588472
 C   -1.022196296860   -0.269797016786    2.222539588472
 H   -1.999820296860   -0.745813016786    2.222413588472
 N    0.156719703140   -0.896392016786    2.222528588472
NA    0.157272364446   -0.895197718628   -6.577471313131
