10

 C    0.490692944740    1.363200700336    2.298264374228
 H    0.884179944740    2.376329700336    2.298484374228
 C    1.102725944740    0.113092700336    2.298300374228
 H    2.168432944740   -0.105634299664    2.298206374228
 N   -0.864395055260    1.094232700336    2.298252374228
 H   -1.609329055260    1.780882700336    2.298506374228
 C   -1.022201055260   -0.269807299664    2.298307374228
 H   -1.999825055260   -0.745823299664    2.298181374228
 N    0.156714944740   -0.896402299664    2.298296374228
NA    0.157286446772   -0.895167286796   -6.801703524020
