10

 C    0.490691358607    1.363197272710    2.323520302814
 H    0.884178358607    2.376326272710    2.323740302814
 C    1.102724358607    0.113089272710    2.323556302814
 H    2.168431358607   -0.105637727290    2.323462302814
 N   -0.864396641393    1.094229272710    2.323508302814
 H   -1.609330641393    1.780879272710    2.323762302814
 C   -1.022202641393   -0.269810727290    2.323563302814
 H   -1.999826641393   -0.745826727290    2.323437302814
 N    0.156713358607   -0.896405727290    2.323552302814
NA    0.157291140880   -0.895157142852   -6.876447594317
