10

 C    0.490688186340    1.363190417458    2.374032159985
 H    0.884175186340    2.376319417458    2.374252159985
 C    1.102721186340    0.113082417458    2.374068159985
 H    2.168428186340   -0.105644582542    2.373974159985
 N   -0.864399813660    1.094222417458    2.374020159985
 H   -1.609333813660    1.780872417458    2.374274159985
 C   -1.022205813660   -0.269817582542    2.374075159985
 H   -1.999829813660   -0.745833582542    2.373949159985
 N    0.156710186340   -0.896412582542    2.374064159985
NA    0.157300529097   -0.895136854965   -7.025935734909
