10

 C    0.490686600206    1.363186989832    2.399288088571
 H    0.884173600206    2.376315989832    2.399508088571
 C    1.102719600206    0.113078989832    2.399324088571
 H    2.168426600206   -0.105648010168    2.399230088571
 N   -0.864401399794    1.094218989832    2.399276088571
 H   -1.609335399794    1.780868989832    2.399530088571
 C   -1.022207399794   -0.269821010168    2.399331088571
 H   -1.999831399794   -0.745837010168    2.399205088571
 N    0.156708600206   -0.896416010168    2.399320088571
NA    0.157305223206   -0.895126711021   -7.100679805206
