10

 C    0.490680255672    1.363173279328    2.500311802913
 H    0.884167255672    2.376302279328    2.500531802913
 C    1.102713255672    0.113065279328    2.500347802913
 H    2.168420255672   -0.105661720672    2.500253802913
 N   -0.864407744328    1.094205279328    2.500299802913
 H   -1.609341744328    1.780855279328    2.500553802913
 C   -1.022213744328   -0.269834720672    2.500354802913
 H   -1.999837744328   -0.745850720672    2.500228802913
 N    0.156702255672   -0.896429720672    2.500343802913
NA    0.157323999641   -0.895086135245   -7.399656086391
