20

 C    1.061808893050   -4.195496695927    0.000000000000
 C   -0.245101106950   -3.436636695927    0.000000000000
 N   -1.349751106950   -4.225386695927    0.000000000000
 H   -2.276071106950   -3.822756695927    0.000000000000
 H   -1.259201106950   -5.233176695927    0.000000000000
 O   -0.310001106950   -2.187726695927    0.000000000000
 H    1.897048893050   -3.487046695927    0.000000000000
 H    1.134328893050   -4.840496695927    0.888170000000
 H    1.134328893050   -4.840496695927   -0.888170000000
RB    0.142378893050    1.004773304073    2.915050000000
RB    0.142378893050    1.004773304073   -2.915050000000
 O   -0.099557944097   -0.702562167934    0.000000000000
 C   -0.164458196435    0.546352687950    0.000000000000
 N    0.940189035350    1.335102565230    0.000000000000
 H    1.866500899874    0.932477515660    0.000000000000
 H    0.849632253828    2.342892172152    0.000000000000
 C   -1.471370001960    1.305205832556    0.000000000000
 H   -2.306612000294    0.596757134965    0.000000000000
 H   -1.543894756616    1.950207575121   -0.888169418326
 H   -1.543894756616    1.950207575121    0.888169418326
