20

 C    1.053178082640   -4.256407078071    0.000000000000
 C   -0.253731917360   -3.497547078071    0.000000000000
 N   -1.358381917360   -4.286297078071    0.000000000000
 H   -2.284701917360   -3.883667078071    0.000000000000
 H   -1.267831917360   -5.294087078071    0.000000000000
 O   -0.318631917360   -2.248637078071    0.000000000000
 H    1.888418082640   -3.547957078071    0.000000000000
 H    1.125698082640   -4.901407078071    0.888170000000
 H    1.125698082640   -4.901407078071   -0.888170000000
RB    0.133748082640    0.943862921929    2.915050000000
RB    0.133748082640    0.943862921929   -2.915050000000
 O   -0.066100121937   -0.466439644480    0.000000000000
 C   -0.131000374275    0.782475211404    0.000000000000
 N    0.973646857510    1.571225088684    0.000000000000
 H    1.899958722035    1.168600039114    0.000000000000
 H    0.883090075989    2.579014695606    0.000000000000
 C   -1.437912179800    1.541328356010    0.000000000000
 H   -2.273154178134    0.832879658419    0.000000000000
 H   -1.510436934456    2.186330098575   -0.888169418326
 H   -1.510436934456    2.186330098575    0.888169418326
