20

 C    0.817269264761   -5.921290856689    0.000000000000
 C   -0.489640735239   -5.162430856689    0.000000000000
 N   -1.594290735239   -5.951180856689    0.000000000000
 H   -2.520610735239   -5.548550856689    0.000000000000
 H   -1.503740735239   -6.958970856689    0.000000000000
 O   -0.554540735239   -3.913520856689    0.000000000000
 H    1.652509264761   -5.212840856689    0.000000000000
 H    0.889789264761   -6.566290856689    0.888170000000
 H    0.889789264761   -6.566290856689   -0.888170000000
RB   -0.102160735239   -0.721020856689    2.915050000000
RB   -0.102160735239   -0.721020856689   -2.915050000000
 O    0.848413683778    5.987575996597    0.000000000000
 C    0.783513431441    7.236490852481    0.000000000000
 N    1.888160663226    8.025240729761    0.000000000000
 H    2.814472527750    7.622615680191    0.000000000000
 H    1.797603881704    9.033030336683    0.000000000000
 C   -0.523398374084    7.995343997087    0.000000000000
 H   -1.358640372418    7.286895299496    0.000000000000
 H   -0.595923128740    8.640345739652   -0.888169418326
 H   -0.595923128740    8.640345739652    0.888169418326
