20

 C    1.047424209033   -4.297013999501    0.000000000000
 C   -0.259485790967   -3.538153999501    0.000000000000
 N   -1.364135790967   -4.326903999501    0.000000000000
 H   -2.290455790967   -3.924273999501    0.000000000000
 H   -1.273585790967   -5.334693999501    0.000000000000
 O   -0.324385790967   -2.289243999501    0.000000000000
 H    1.882664209033   -3.588563999501    0.000000000000
 H    1.119944209033   -4.942013999501    0.888170000000
 H    1.119944209033   -4.942013999501   -0.888170000000
RB    0.127994209033    0.903256000499    2.915050000000
RB    0.127994209033    0.903256000499   -2.915050000000
 O   -0.043794907164   -0.309024628844    0.000000000000
 C   -0.108695159501    0.939890227040    0.000000000000
 N    0.995952072284    1.728640104320    0.000000000000
 H    1.922263936808    1.326015054750    0.000000000000
 H    0.905395290762    2.736429711242    0.000000000000
 C   -1.415606965026    1.698743371646    0.000000000000
 H   -2.250848963360    0.990294674055    0.000000000000
 H   -1.488131719682    2.343745114211   -0.888169418326
 H   -1.488131719682    2.343745114211    0.888169418326
