20

 C    1.024408714606   -4.459441685220    0.000000000000
 C   -0.282501285394   -3.700581685220    0.000000000000
 N   -1.387151285394   -4.489331685220    0.000000000000
 H   -2.313471285394   -4.086701685220    0.000000000000
 H   -1.296601285394   -5.497121685220    0.000000000000
 O   -0.347401285394   -2.451671685220    0.000000000000
 H    1.859648714606   -3.750991685220    0.000000000000
 H    1.096928714606   -5.104441685220    0.888170000000
 H    1.096928714606   -5.104441685220   -0.888170000000
RB    0.104978714606    0.740828314780    2.915050000000
RB    0.104978714606    0.740828314780   -2.915050000000
 O    0.045425951931    0.320635433700    0.000000000000
 C   -0.019474300407    1.569550289584    0.000000000000
 N    1.085172931378    2.358300166864    0.000000000000
 H    2.011484795902    1.955675117294    0.000000000000
 H    0.994616149856    3.366089773787    0.000000000000
 C   -1.326386105932    2.328403434190    0.000000000000
 H   -2.161628104266    1.619954736599    0.000000000000
 H   -1.398910860588    2.973405176755   -0.888169418326
 H   -1.398910860588    2.973405176755    0.888169418326
