20

 C    1.007147093785   -4.581262449509    0.000000000000
 C   -0.299762906215   -3.822402449509    0.000000000000
 N   -1.404412906215   -4.611152449509    0.000000000000
 H   -2.330732906215   -4.208522449509    0.000000000000
 H   -1.313862906215   -5.618942449509    0.000000000000
 O   -0.364662906215   -2.573492449509    0.000000000000
 H    1.842387093785   -3.872812449509    0.000000000000
 H    1.079667093785   -5.226262449509    0.888170000000
 H    1.079667093785   -5.226262449509   -0.888170000000
RB    0.087717093785    0.619007550491    2.915050000000
RB    0.087717093785    0.619007550491   -2.915050000000
 O    0.112341596251    0.792880480608    0.000000000000
 C    0.047441343914    2.041795336492    0.000000000000
 N    1.152088575699    2.830545213772    0.000000000000
 H    2.078400440223    2.427920164202    0.000000000000
 H    1.061531794177    3.838334820695    0.000000000000
 C   -1.259470461611    2.800648481098    0.000000000000
 H   -2.094712459945    2.092199783507    0.000000000000
 H   -1.331995216267    3.445650223664   -0.888169418326
 H   -1.331995216267    3.445650223664    0.888169418326
