20

 C    1.004270156982   -4.601565910224    0.000000000000
 C   -0.302639843018   -3.842705910224    0.000000000000
 N   -1.407289843018   -4.631455910224    0.000000000000
 H   -2.333609843018   -4.228825910224    0.000000000000
 H   -1.316739843018   -5.639245910224    0.000000000000
 O   -0.367539843018   -2.593795910224    0.000000000000
 H    1.839510156982   -3.893115910224    0.000000000000
 H    1.076790156982   -5.246565910224    0.888170000000
 H    1.076790156982   -5.246565910224   -0.888170000000
RB    0.084840156982    0.598704089776    2.915050000000
RB    0.084840156982    0.598704089776   -2.915050000000
 O    0.123494203638    0.871587988426    0.000000000000
 C    0.058593951301    2.120502844310    0.000000000000
 N    1.163241183085    2.909252721590    0.000000000000
 H    2.089553047610    2.506627672021    0.000000000000
 H    1.072684401564    3.917042328513    0.000000000000
 C   -1.248317854224    2.879355988917    0.000000000000
 H   -2.083559852558    2.170907291325    0.000000000000
 H   -1.320842608881    3.524357731482   -0.888169418326
 H   -1.320842608881    3.524357731482    0.888169418326
