20

 C    0.978377725751   -4.784297056658    0.000000000000
 C   -0.328532274249   -4.025437056658    0.000000000000
 N   -1.433182274249   -4.814187056658    0.000000000000
 H   -2.359502274249   -4.411557056658    0.000000000000
 H   -1.342632274249   -5.821977056658    0.000000000000
 O   -0.393432274249   -2.776527056658    0.000000000000
 H    1.813617725751   -4.075847056658    0.000000000000
 H    1.050897725751   -5.429297056658    0.888170000000
 H    1.050897725751   -5.429297056658   -0.888170000000
RB    0.058947725751    0.415972943342    2.915050000000
RB    0.058947725751    0.415972943342   -2.915050000000
 O    0.223867670119    1.579955558788    0.000000000000
 C    0.158967417781    2.828870414672    0.000000000000
 N    1.263614649566    3.617620291953    0.000000000000
 H    2.189926514091    3.214995242383    0.000000000000
 H    1.173057868045    4.625409898875    0.000000000000
 C   -1.147944387744    3.587723559279    0.000000000000
 H   -1.983186386077    2.879274861687    0.000000000000
 H   -1.220469142400    4.232725301844   -0.888169418326
 H   -1.220469142400    4.232725301844    0.888169418326
