20

 C    0.975500788948   -4.804600517372    0.000000000000
 C   -0.331409211052   -4.045740517372    0.000000000000
 N   -1.436059211052   -4.834490517372    0.000000000000
 H   -2.362379211052   -4.431860517372    0.000000000000
 H   -1.345509211052   -5.842280517372    0.000000000000
 O   -0.396309211052   -2.796830517372    0.000000000000
 H    1.810740788948   -4.096150517372    0.000000000000
 H    1.048020788948   -5.449600517372    0.888170000000
 H    1.048020788948   -5.449600517372   -0.888170000000
RB    0.056070788948    0.395669482628    2.915050000000
RB    0.056070788948    0.395669482628   -2.915050000000
 O    0.235020277506    1.658663066606    0.000000000000
 C    0.170120025168    2.907577922490    0.000000000000
 N    1.274767256953    3.696327799771    0.000000000000
 H    2.201079121478    3.293702750201    0.000000000000
 H    1.184210475432    4.704117406693    0.000000000000
 C   -1.136791780357    3.666431067097    0.000000000000
 H   -1.972033778691    2.957982369505    0.000000000000
 H   -1.209316535013    4.311432809662   -0.888169418326
 H   -1.209316535013    4.311432809662    0.888169418326
