20

 C    0.963993041734   -4.885814360232    0.000000000000
 C   -0.342916958266   -4.126954360232    0.000000000000
 N   -1.447566958266   -4.915704360232    0.000000000000
 H   -2.373886958266   -4.513074360232    0.000000000000
 H   -1.357016958266   -5.923494360232    0.000000000000
 O   -0.407816958266   -2.878044360232    0.000000000000
 H    1.799233041734   -4.177364360232    0.000000000000
 H    1.036513041734   -5.530814360232    0.888170000000
 H    1.036513041734   -5.530814360232   -0.888170000000
RB    0.044563041734    0.314455639768    2.915050000000
RB    0.044563041734    0.314455639768   -2.915050000000
 O    0.279630707053    1.973493097879    0.000000000000
 C    0.214730454715    3.222407953762    0.000000000000
 N    1.319377686500    4.011157831043    0.000000000000
 H    2.245689551025    3.608532781473    0.000000000000
 H    1.228820904979    5.018947437965    0.000000000000
 C   -1.092181350810    3.981261098369    0.000000000000
 H   -1.927423349144    3.272812400777    0.000000000000
 H   -1.164706105466    4.626262840934   -0.888169418326
 H   -1.164706105466    4.626262840934    0.888169418326
