20

 C    0.940977547307   -5.048242045951    0.000000000000
 C   -0.365932452693   -4.289382045951    0.000000000000
 N   -1.470582452693   -5.078132045951    0.000000000000
 H   -2.396902452693   -4.675502045951    0.000000000000
 H   -1.380032452693   -6.085922045951    0.000000000000
 O   -0.430832452693   -3.040472045951    0.000000000000
 H    1.776217547307   -4.339792045951    0.000000000000
 H    1.013497547307   -5.693242045951    0.888170000000
 H    1.013497547307   -5.693242045951   -0.888170000000
RB    0.021547547307    0.152027954049    2.915050000000
RB    0.021547547307    0.152027954049   -2.915050000000
 O    0.368851566147    2.603153160423    0.000000000000
 C    0.303951313810    3.852068016306    0.000000000000
 N    1.408598545594    4.640817893587    0.000000000000
 H    2.334910410119    4.238192844017    0.000000000000
 H    1.318041764073    5.648607500509    0.000000000000
 C   -1.002960491715    4.610921160913    0.000000000000
 H   -1.838202490049    3.902472463321    0.000000000000
 H   -1.075485246372    5.255922903478   -0.888169418326
 H   -1.075485246372    5.255922903478    0.888169418326
