20

 C    0.938100610504   -5.068545506666    0.000000000000
 C   -0.368809389496   -4.309685506666    0.000000000000
 N   -1.473459389496   -5.098435506666    0.000000000000
 H   -2.399779389496   -4.695805506666    0.000000000000
 H   -1.382909389496   -6.106225506666    0.000000000000
 O   -0.433709389496   -3.060775506666    0.000000000000
 H    1.773340610504   -4.360095506666    0.000000000000
 H    1.010620610504   -5.713545506666    0.888170000000
 H    1.010620610504   -5.713545506666   -0.888170000000
RB    0.018670610504    0.131724493334    2.915050000000
RB    0.018670610504    0.131724493334   -2.915050000000
 O    0.380004173534    2.681860668241    0.000000000000
 C    0.315103921196    3.930775524124    0.000000000000
 N    1.419751152981    4.719525401405    0.000000000000
 H    2.346063017506    4.316900351835    0.000000000000
 H    1.329194371460    5.727315008327    0.000000000000
 C   -0.991807884329    4.689628668731    0.000000000000
 H   -1.827049882663    3.981179971139    0.000000000000
 H   -1.064332638985    5.334630411296   -0.888169418326
 H   -1.064332638985    5.334630411296    0.888169418326
