20

 C    0.935223673700   -5.088848967380    0.000000000000
 C   -0.371686326300   -4.329988967380    0.000000000000
 N   -1.476336326300   -5.118738967380    0.000000000000
 H   -2.402656326300   -4.716108967380    0.000000000000
 H   -1.385786326300   -6.126528967380    0.000000000000
 O   -0.436586326300   -3.081078967380    0.000000000000
 H    1.770463673700   -4.380398967380    0.000000000000
 H    1.007743673700   -5.733848967380    0.888170000000
 H    1.007743673700   -5.733848967380   -0.888170000000
RB    0.015793673700    0.111421032620    2.915050000000
RB    0.015793673700    0.111421032620   -2.915050000000
 O    0.391156780921    2.760568176059    0.000000000000
 C    0.326256528583    4.009483031942    0.000000000000
 N    1.430903760368    4.798232909223    0.000000000000
 H    2.357215624892    4.395607859653    0.000000000000
 H    1.340346978846    5.806022516145    0.000000000000
 C   -0.980655276942    4.768336176549    0.000000000000
 H   -1.815897275276    4.059887478957    0.000000000000
 H   -1.053180031598    5.413337919114   -0.888169418326
 H   -1.053180031598    5.413337919114    0.888169418326
