20

 C    0.929469800094   -5.129455888810    0.000000000000
 C   -0.377440199906   -4.370595888810    0.000000000000
 N   -1.482090199906   -5.159345888810    0.000000000000
 H   -2.408410199906   -4.756715888810    0.000000000000
 H   -1.391540199906   -6.167135888810    0.000000000000
 O   -0.442340199906   -3.121685888810    0.000000000000
 H    1.764709800094   -4.421005888810    0.000000000000
 H    1.001989800094   -5.774455888810    0.888170000000
 H    1.001989800094   -5.774455888810   -0.888170000000
RB    0.010039800094    0.070814111190    2.915050000000
RB    0.010039800094    0.070814111190   -2.915050000000
 O    0.413461995694    2.917983191695    0.000000000000
 C    0.348561743357    4.166898047578    0.000000000000
 N    1.453208975141    4.955647924859    0.000000000000
 H    2.379520839666    4.553022875289    0.000000000000
 H    1.362652193620    5.963437531781    0.000000000000
 C   -0.958350062168    4.925751192185    0.000000000000
 H   -1.793592060502    4.217302494593    0.000000000000
 H   -1.030874816825    5.570752934750   -0.888169418326
 H   -1.030874816825    5.570752934750    0.888169418326
