20

 C    0.920838989683   -5.190366270955    0.000000000000
 C   -0.386071010317   -4.431506270955    0.000000000000
 N   -1.490721010317   -5.220256270955    0.000000000000
 H   -2.417041010317   -4.817626270955    0.000000000000
 H   -1.400171010317   -6.228046270955    0.000000000000
 O   -0.450971010317   -3.182596270955    0.000000000000
 H    1.756078989683   -4.481916270955    0.000000000000
 H    0.993358989683   -5.835366270955    0.888170000000
 H    0.993358989683   -5.835366270955   -0.888170000000
RB    0.001408989683    0.009903729045    2.915050000000
RB    0.001408989683    0.009903729045   -2.915050000000
 O    0.446919817854    3.154105715149    0.000000000000
 C    0.382019565517    4.403020571032    0.000000000000
 N    1.486666797302    5.191770448313    0.000000000000
 H    2.412978661826    4.789145398743    0.000000000000
 H    1.396110015780    6.199560055235    0.000000000000
 C   -0.924892240008    5.161873715639    0.000000000000
 H   -1.760134238342    4.453425018047    0.000000000000
 H   -0.997416994664    5.806875458204   -0.888169418326
 H   -0.997416994664    5.806875458204    0.888169418326
