20

 C    0.894946558453   -5.373097417388    0.000000000000
 C   -0.411963441547   -4.614237417388    0.000000000000
 N   -1.516613441547   -5.402987417388    0.000000000000
 H   -2.442933441547   -5.000357417388    0.000000000000
 H   -1.426063441547   -6.410777417388    0.000000000000
 O   -0.476863441547   -3.365327417388    0.000000000000
 H    1.730186558453   -4.664647417388    0.000000000000
 H    0.967466558453   -6.018097417388    0.888170000000
 H    0.967466558453   -6.018097417388   -0.888170000000
RB   -0.024483441547   -0.172827417388    2.915050000000
RB   -0.024483441547   -0.172827417388   -2.915050000000
 O    0.547293284335    3.862473285511    0.000000000000
 C    0.482393031998    5.111388141394    0.000000000000
 N    1.587040263783    5.900138018675    0.000000000000
 H    2.513352128307    5.497512969105    0.000000000000
 H    1.496483482261    6.907927625597    0.000000000000
 C   -0.824518773527    5.870241286001    0.000000000000
 H   -1.659760771861    5.161792588409    0.000000000000
 H   -0.897043528183    6.515243028566   -0.888169418326
 H   -0.897043528183    6.515243028566    0.888169418326
