20

 C    0.892069621649   -5.393400878103    0.000000000000
 C   -0.414840378351   -4.634540878103    0.000000000000
 N   -1.519490378351   -5.423290878103    0.000000000000
 H   -2.445810378351   -5.020660878103    0.000000000000
 H   -1.428940378351   -6.431080878103    0.000000000000
 O   -0.479740378351   -3.385630878103    0.000000000000
 H    1.727309621649   -4.684950878103    0.000000000000
 H    0.964589621649   -6.038400878103    0.888170000000
 H    0.964589621649   -6.038400878103   -0.888170000000
RB   -0.027360378351   -0.193130878103    2.915050000000
RB   -0.027360378351   -0.193130878103   -2.915050000000
 O    0.558445891722    3.941180793329    0.000000000000
 C    0.493545639385    5.190095649212    0.000000000000
 N    1.598192871170    5.978845526493    0.000000000000
 H    2.524504735694    5.576220476923    0.000000000000
 H    1.507636089648    6.986635133415    0.000000000000
 C   -0.813366166140    5.948948793819    0.000000000000
 H   -1.648608164474    5.240500096227    0.000000000000
 H   -0.885890920796    6.593950536384   -0.888169418326
 H   -0.885890920796    6.593950536384    0.888169418326
