20

 C    0.880561874436   -5.474614720963    0.000000000000
 C   -0.426348125564   -4.715754720963    0.000000000000
 N   -1.530998125564   -5.504504720963    0.000000000000
 H   -2.457318125564   -5.101874720963    0.000000000000
 H   -1.440448125564   -6.512294720963    0.000000000000
 O   -0.491248125564   -3.466844720963    0.000000000000
 H    1.715801874436   -4.766164720963    0.000000000000
 H    0.953081874436   -6.119614720963    0.888170000000
 H    0.953081874436   -6.119614720963   -0.888170000000
RB   -0.038868125564   -0.274344720963    2.915050000000
RB   -0.038868125564   -0.274344720963   -2.915050000000
 O    0.603056321269    4.256010824601    0.000000000000
 C    0.538156068932    5.504925680484    0.000000000000
 N    1.642803300717    6.293675557765    0.000000000000
 H    2.569115165241    5.891050508195    0.000000000000
 H    1.552246519195    7.301465164687    0.000000000000
 C   -0.768755736593    6.263778825091    0.000000000000
 H   -1.603997734927    5.555330127499    0.000000000000
 H   -0.841280491249    6.908780567656   -0.888169418326
 H   -0.841280491249    6.908780567656    0.888169418326
