20

 C    0.874808000829   -5.515221642392    0.000000000000
 C   -0.432101999171   -4.756361642392    0.000000000000
 N   -1.536751999171   -5.545111642392    0.000000000000
 H   -2.463071999171   -5.142481642392    0.000000000000
 H   -1.446201999171   -6.552901642392    0.000000000000
 O   -0.497001999171   -3.507451642392    0.000000000000
 H    1.710048000829   -4.806771642392    0.000000000000
 H    0.947328000829   -6.160221642392    0.888170000000
 H    0.947328000829   -6.160221642392   -0.888170000000
RB   -0.044621999171   -0.314951642392    2.915050000000
RB   -0.044621999171   -0.314951642392   -2.915050000000
 O    0.625361536043    4.413425840237    0.000000000000
 C    0.560461283705    5.662340696120    0.000000000000
 N    1.665108515490    6.451090573401    0.000000000000
 H    2.591420380015    6.048465523831    0.000000000000
 H    1.574551733969    7.458880180323    0.000000000000
 C   -0.746450521820    6.421193840727    0.000000000000
 H   -1.581692520154    5.712745143136    0.000000000000
 H   -0.818975276476    7.066195583292   -0.888169418326
 H   -0.818975276476    7.066195583292    0.888169418326
