20

 C    0.869054127222   -5.555828563822    0.000000000000
 C   -0.437855872778   -4.796968563822    0.000000000000
 N   -1.542505872778   -5.585718563822    0.000000000000
 H   -2.468825872778   -5.183088563822    0.000000000000
 H   -1.451955872778   -6.593508563822    0.000000000000
 O   -0.502755872778   -3.548058563822    0.000000000000
 H    1.704294127222   -4.847378563822    0.000000000000
 H    0.941574127222   -6.200828563822    0.888170000000
 H    0.941574127222   -6.200828563822   -0.888170000000
RB   -0.050375872778   -0.355558563822    2.915050000000
RB   -0.050375872778   -0.355558563822   -2.915050000000
 O    0.647666750816    4.570840855873    0.000000000000
 C    0.582766498479    5.819755711756    0.000000000000
 N    1.687413730264    6.608505589037    0.000000000000
 H    2.613725594788    6.205880539467    0.000000000000
 H    1.596856948742    7.616295195959    0.000000000000
 C   -0.724145307046    6.578608856363    0.000000000000
 H   -1.559387305380    5.870160158772    0.000000000000
 H   -0.796670061702    7.223610598928   -0.888169418326
 H   -0.796670061702    7.223610598928    0.888169418326
