20

 C    0.863300253615   -5.596435485252    0.000000000000
 C   -0.443609746385   -4.837575485252    0.000000000000
 N   -1.548259746385   -5.626325485252    0.000000000000
 H   -2.474579746385   -5.223695485252    0.000000000000
 H   -1.457709746385   -6.634115485252    0.000000000000
 O   -0.508509746385   -3.588665485252    0.000000000000
 H    1.698540253615   -4.887985485252    0.000000000000
 H    0.935820253615   -6.241435485252    0.888170000000
 H    0.935820253615   -6.241435485252   -0.888170000000
RB   -0.056129746385   -0.396165485252    2.915050000000
RB   -0.056129746385   -0.396165485252   -2.915050000000
 O    0.669971965590    4.728255871509    0.000000000000
 C    0.605071713252    5.977170727392    0.000000000000
 N    1.709718945037    6.765920604673    0.000000000000
 H    2.636030809562    6.363295555103    0.000000000000
 H    1.619162163516    7.773710211595    0.000000000000
 C   -0.701840092273    6.736023871999    0.000000000000
 H   -1.537082090606    6.027575174408    0.000000000000
 H   -0.774364846929    7.381025614564   -0.888169418326
 H   -0.774364846929    7.381025614564    0.888169418326
