20

 C    0.854669443205   -5.657345867396    0.000000000000
 C   -0.452240556795   -4.898485867396    0.000000000000
 N   -1.556890556795   -5.687235867396    0.000000000000
 H   -2.483210556795   -5.284605867396    0.000000000000
 H   -1.466340556795   -6.695025867396    0.000000000000
 O   -0.517140556795   -3.649575867396    0.000000000000
 H    1.689909443205   -4.948895867396    0.000000000000
 H    0.927189443205   -6.302345867396    0.888170000000
 H    0.927189443205   -6.302345867396   -0.888170000000
RB   -0.064760556795   -0.457075867396    2.915050000000
RB   -0.064760556795   -0.457075867396   -2.915050000000
 O    0.703429787750    4.964378394963    0.000000000000
 C    0.638529535413    6.213293250846    0.000000000000
 N    1.743176767198    7.002043128127    0.000000000000
 H    2.669488631722    6.599418078557    0.000000000000
 H    1.652619985676    8.009832735049    0.000000000000
 C   -0.668382270112    6.972146395453    0.000000000000
 H   -1.503624268446    6.263697697862    0.000000000000
 H   -0.740907024768    7.617148138018   -0.888169418326
 H   -0.740907024768    7.617148138018    0.888169418326
