20

 C    0.851792506402   -5.677649328111    0.000000000000
 C   -0.455117493598   -4.918789328111    0.000000000000
 N   -1.559767493598   -5.707539328111    0.000000000000
 H   -2.486087493598   -5.304909328111    0.000000000000
 H   -1.469217493598   -6.715329328111    0.000000000000
 O   -0.520017493598   -3.669879328111    0.000000000000
 H    1.687032506402   -4.969199328111    0.000000000000
 H    0.924312506402   -6.322649328111    0.888170000000
 H    0.924312506402   -6.322649328111   -0.888170000000
RB   -0.067637493598   -0.477379328111    2.915050000000
RB   -0.067637493598   -0.477379328111   -2.915050000000
 O    0.714582395137    5.043085902781    0.000000000000
 C    0.649682142800    6.292000758665    0.000000000000
 N    1.754329374584    7.080750635945    0.000000000000
 H    2.680641239109    6.678125586375    0.000000000000
 H    1.663772593063    8.088540242867    0.000000000000
 C   -0.657229662725    7.050853903271    0.000000000000
 H   -1.492471661059    6.342405205680    0.000000000000
 H   -0.729754417382    7.695855645836   -0.888169418326
 H   -0.729754417382    7.695855645836    0.888169418326
