20

 C    0.848915569598   -5.697952788826    0.000000000000
 C   -0.457994430402   -4.939092788826    0.000000000000
 N   -1.562644430402   -5.727842788826    0.000000000000
 H   -2.488964430402   -5.325212788826    0.000000000000
 H   -1.472094430402   -6.735632788826    0.000000000000
 O   -0.522894430402   -3.690182788826    0.000000000000
 H    1.684155569598   -4.989502788826    0.000000000000
 H    0.921435569598   -6.342952788826    0.888170000000
 H    0.921435569598   -6.342952788826   -0.888170000000
RB   -0.070514430402   -0.497682788826    2.915050000000
RB   -0.070514430402   -0.497682788826   -2.915050000000
 O    0.725735002524    5.121793410599    0.000000000000
 C    0.660834750186    6.370708266483    0.000000000000
 N    1.765481981971    7.159458143763    0.000000000000
 H    2.691793846496    6.756833094193    0.000000000000
 H    1.674925200450    8.167247750685    0.000000000000
 C   -0.646077055339    7.129561411089    0.000000000000
 H   -1.481319053673    6.421112713498    0.000000000000
 H   -0.718601809995    7.774563153654   -0.888169418326
 H   -0.718601809995    7.774563153654    0.888169418326
