20

 C    0.843161695992   -5.738559710256    0.000000000000
 C   -0.463748304008   -4.979699710256    0.000000000000
 N   -1.568398304008   -5.768449710256    0.000000000000
 H   -2.494718304008   -5.365819710256    0.000000000000
 H   -1.477848304008   -6.776239710256    0.000000000000
 O   -0.528648304008   -3.730789710256    0.000000000000
 H    1.678401695992   -5.030109710256    0.000000000000
 H    0.915681695992   -6.383559710256    0.888170000000
 H    0.915681695992   -6.383559710256   -0.888170000000
RB   -0.076268304008   -0.538289710256    2.915050000000
RB   -0.076268304008   -0.538289710256   -2.915050000000
 O    0.748040217297    5.279208426235    0.000000000000
 C    0.683139964960    6.528123282119    0.000000000000
 N    1.787787196745    7.316873159399    0.000000000000
 H    2.714099061269    6.914248109829    0.000000000000
 H    1.697230415223    8.324662766321    0.000000000000
 C   -0.623771840565    7.286976426725    0.000000000000
 H   -1.459013838899    6.578527729134    0.000000000000
 H   -0.696296595221    7.931978169290   -0.888169418326
 H   -0.696296595221    7.931978169290    0.888169418326
