20

 C    0.823023138368   -5.880683935260    0.000000000000
 C   -0.483886861632   -5.121823935260    0.000000000000
 N   -1.588536861632   -5.910573935260    0.000000000000
 H   -2.514856861632   -5.507943935260    0.000000000000
 H   -1.497986861632   -6.918363935260    0.000000000000
 O   -0.548786861632   -3.872913935260    0.000000000000
 H    1.658263138368   -5.172233935260    0.000000000000
 H    0.895543138368   -6.525683935260    0.888170000000
 H    0.895543138368   -6.525683935260   -0.888170000000
RB   -0.096406861632   -0.680413935260    2.915050000000
RB   -0.096406861632   -0.680413935260   -2.915050000000
 O    0.826108469005    5.830160980961    0.000000000000
 C    0.761208216667    7.079075836845    0.000000000000
 N    1.865855448452    7.867825714125    0.000000000000
 H    2.792167312977    7.465200664555    0.000000000000
 H    1.775298666931    8.875615321047    0.000000000000
 C   -0.545703588858    7.837928981451    0.000000000000
 H   -1.380945587192    7.129480283860    0.000000000000
 H   -0.618228343514    8.482930724016   -0.888169418326
 H   -0.618228343514    8.482930724016    0.888169418326
