14

 C   -0.192935887396   -2.444325223012    0.000000000000
 H   -0.185213887396   -3.537500223012    0.000000000000
 C    1.017540112604   -1.724486223012    0.000000000000
 H    1.972559112604   -2.258185223012    0.000000000000
 C   -1.412759887396   -1.744319223012    0.000000000000
 H   -2.360891887396   -2.290131223012    0.000000000000
 C    1.015132112604   -0.319341223012    0.000000000000
 H    1.946486112604    0.253197776988    0.000000000000
 C   -1.426610887396   -0.336838223012    0.000000000000
 H   -2.378609887396    0.205882776988    0.000000000000
 C   -0.210333887396    0.370943776988    0.000000000000
 O   -0.149786887396    1.751404776988    0.000000000000
 H   -1.052917887396    2.099831776988    0.000000000000
NA    0.826025915223    2.259134404098    0.000000000000
