14

 C   -0.210362186757   -2.453392380619    0.000000000000
 H   -0.202640186757   -3.546567380619    0.000000000000
 C    1.000113813243   -1.733553380619    0.000000000000
 H    1.955132813243   -2.267252380619    0.000000000000
 C   -1.430186186757   -1.753386380619    0.000000000000
 H   -2.378318186757   -2.299198380619    0.000000000000
 C    0.997705813243   -0.328408380619    0.000000000000
 H    1.929059813243    0.244130619381    0.000000000000
 C   -1.444037186757   -0.345905380619    0.000000000000
 H   -2.396036186757    0.196815619381    0.000000000000
 C   -0.227760186757    0.361876619381    0.000000000000
 O   -0.167213186757    1.742337619381    0.000000000000
 H   -1.070344186757    2.090764619381    0.000000000000
NA    0.897309870645    2.296224485319    0.000000000000
