14

 C   -0.227788486118   -2.462459538226    0.000000000000
 H   -0.220066486118   -3.555634538226    0.000000000000
 C    0.982687513882   -1.742620538226    0.000000000000
 H    1.937706513882   -2.276319538226    0.000000000000
 C   -1.447612486118   -1.762453538226    0.000000000000
 H   -2.395744486118   -2.308265538226    0.000000000000
 C    0.980279513882   -0.337475538226    0.000000000000
 H    1.911633513882    0.235063461774    0.000000000000
 C   -1.461463486118   -0.354972538226    0.000000000000
 H   -2.413462486118    0.187748461774    0.000000000000
 C   -0.245186486118    0.352809461774    0.000000000000
 O   -0.184639486118    1.733270461774    0.000000000000
 H   -1.087770486118    2.081697461774    0.000000000000
NA    0.968593826068    2.333314566541    0.000000000000
