14

 C   -0.245214785479   -2.471526695833    0.000000000000
 H   -0.237492785479   -3.564701695833    0.000000000000
 C    0.965261214521   -1.751687695833    0.000000000000
 H    1.920280214521   -2.285386695833    0.000000000000
 C   -1.465038785479   -1.771520695833    0.000000000000
 H   -2.413170785479   -2.317332695833    0.000000000000
 C    0.962853214521   -0.346542695833    0.000000000000
 H    1.894207214521    0.225996304167    0.000000000000
 C   -1.478889785479   -0.364039695833    0.000000000000
 H   -2.430888785479    0.178681304167    0.000000000000
 C   -0.262612785479    0.343742304167    0.000000000000
 O   -0.202065785479    1.724203304167    0.000000000000
 H   -1.105196785479    2.072630304167    0.000000000000
NA    1.039877781491    2.370404647762    0.000000000000
