14

 C   -0.280067384200   -2.489661011047    0.000000000000
 H   -0.272345384200   -3.582836011047    0.000000000000
 C    0.930408615800   -1.769822011047    0.000000000000
 H    1.885427615800   -2.303521011047    0.000000000000
 C   -1.499891384200   -1.789655011047    0.000000000000
 H   -2.448023384200   -2.335467011047    0.000000000000
 C    0.928000615800   -0.364677011047    0.000000000000
 H    1.859354615800    0.207861988953    0.000000000000
 C   -1.513742384200   -0.382174011047    0.000000000000
 H   -2.465741384200    0.160546988953    0.000000000000
 C   -0.297465384200    0.325607988953    0.000000000000
 O   -0.236918384200    1.706068988953    0.000000000000
 H   -1.140049384200    2.054495988953    0.000000000000
NA    1.182445692336    2.444584810204    0.000000000000
