14

 C   -0.297493683561   -2.498728168654    0.000000000000
 H   -0.289771683561   -3.591903168654    0.000000000000
 C    0.912982316439   -1.778889168654    0.000000000000
 H    1.868001316439   -2.312588168654    0.000000000000
 C   -1.517317683561   -1.798722168654    0.000000000000
 H   -2.465449683561   -2.344534168654    0.000000000000
 C    0.910574316439   -0.373744168654    0.000000000000
 H    1.841928316439    0.198794831346    0.000000000000
 C   -1.531168683561   -0.391241168654    0.000000000000
 H   -2.483167683561    0.151479831346    0.000000000000
 C   -0.314891683561    0.316540831346    0.000000000000
 O   -0.254344683561    1.697001831346    0.000000000000
 H   -1.157475683561    2.045428831346    0.000000000000
NA    1.253729647759    2.481674891425    0.000000000000
