14

 C   -0.314919982922   -2.507795326261    0.000000000000
 H   -0.307197982922   -3.600970326261    0.000000000000
 C    0.895556017078   -1.787956326261    0.000000000000
 H    1.850575017078   -2.321655326261    0.000000000000
 C   -1.534743982922   -1.807789326261    0.000000000000
 H   -2.482875982922   -2.353601326261    0.000000000000
 C    0.893148017078   -0.382811326261    0.000000000000
 H    1.824502017078    0.189727673739    0.000000000000
 C   -1.548594982922   -0.400308326261    0.000000000000
 H   -2.500593982922    0.142412673739    0.000000000000
 C   -0.332317982922    0.307473673739    0.000000000000
 O   -0.271770982922    1.687934673739    0.000000000000
 H   -1.174901982922    2.036361673739    0.000000000000
NA    1.325013603182    2.518764972646    0.000000000000
