14

 C   -0.332346282282   -2.516862483868    0.000000000000
 H   -0.324624282282   -3.610037483868    0.000000000000
 C    0.878129717718   -1.797023483868    0.000000000000
 H    1.833148717718   -2.330722483868    0.000000000000
 C   -1.552170282282   -1.816856483868    0.000000000000
 H   -2.500302282282   -2.362668483868    0.000000000000
 C    0.875721717718   -0.391878483868    0.000000000000
 H    1.807075717718    0.180660516132    0.000000000000
 C   -1.566021282282   -0.409375483868    0.000000000000
 H   -2.518020282282    0.133345516132    0.000000000000
 C   -0.349744282282    0.298406516132    0.000000000000
 O   -0.289197282282    1.678867516132    0.000000000000
 H   -1.192328282282    2.027294516132    0.000000000000
NA    1.396297558605    2.555855053867    0.000000000000
