14

 C   -0.349772581643   -2.525929641475    0.000000000000
 H   -0.342050581643   -3.619104641475    0.000000000000
 C    0.860703418357   -1.806090641475    0.000000000000
 H    1.815722418357   -2.339789641475    0.000000000000
 C   -1.569596581643   -1.825923641475    0.000000000000
 H   -2.517728581643   -2.371735641475    0.000000000000
 C    0.858295418357   -0.400945641475    0.000000000000
 H    1.789649418357    0.171593358525    0.000000000000
 C   -1.583447581643   -0.418442641475    0.000000000000
 H   -2.535446581643    0.124278358525    0.000000000000
 C   -0.367170581643    0.289339358525    0.000000000000
 O   -0.306623581643    1.669800358525    0.000000000000
 H   -1.209754581643    2.018227358525    0.000000000000
NA    1.467581514027    2.592945135088    0.000000000000
