14

 C   -0.436904078447   -2.571265429511    0.000000000000
 H   -0.429182078447   -3.664440429511    0.000000000000
 C    0.773571921553   -1.851426429511    0.000000000000
 H    1.728590921553   -2.385125429511    0.000000000000
 C   -1.656728078447   -1.871259429511    0.000000000000
 H   -2.604860078447   -2.417071429511    0.000000000000
 C    0.771163921553   -0.446281429511    0.000000000000
 H    1.702517921553    0.126257570489    0.000000000000
 C   -1.670579078447   -0.463778429511    0.000000000000
 H   -2.622578078447    0.078942570489    0.000000000000
 C   -0.454302078447    0.244003570489    0.000000000000
 O   -0.393755078447    1.624464570489    0.000000000000
 H   -1.296886078447    1.972891570489    0.000000000000
NA    1.824001291141    2.778395541194    0.000000000000
