14

 C   -0.454330377808   -2.580332587118    0.000000000000
 H   -0.446608377808   -3.673507587118    0.000000000000
 C    0.756145622192   -1.860493587118    0.000000000000
 H    1.711164622192   -2.394192587118    0.000000000000
 C   -1.674154377808   -1.880326587118    0.000000000000
 H   -2.622286377808   -2.426138587118    0.000000000000
 C    0.753737622192   -0.455348587118    0.000000000000
 H    1.685091622192    0.117190412882    0.000000000000
 C   -1.688005377808   -0.472845587118    0.000000000000
 H   -2.640004377808    0.069875412882    0.000000000000
 C   -0.471728377808    0.234936412882    0.000000000000
 O   -0.411181377808    1.615397412882    0.000000000000
 H   -1.314312377808    1.963824412882    0.000000000000
NA    1.895285246564    2.815485622415    0.000000000000
