14

 C   -0.489182976530   -2.598466902332    0.000000000000
 H   -0.481460976530   -3.691641902332    0.000000000000
 C    0.721293023470   -1.878627902332    0.000000000000
 H    1.676312023470   -2.412326902332    0.000000000000
 C   -1.709006976530   -1.898460902332    0.000000000000
 H   -2.657138976530   -2.444272902332    0.000000000000
 C    0.718885023470   -0.473482902332    0.000000000000
 H    1.650239023470    0.099056097668    0.000000000000
 C   -1.722857976530   -0.490979902332    0.000000000000
 H   -2.674856976530    0.051741097668    0.000000000000
 C   -0.506580976530    0.216802097668    0.000000000000
 O   -0.446033976530    1.597263097668    0.000000000000
 H   -1.349164976530    1.945690097668    0.000000000000
NA    2.037853157409    2.889665784857    0.000000000000
