14

 C   -0.506609275890   -2.607534059939    0.000000000000
 H   -0.498887275890   -3.700709059939    0.000000000000
 C    0.703866724110   -1.887695059939    0.000000000000
 H    1.658885724110   -2.421394059939    0.000000000000
 C   -1.726433275890   -1.907528059939    0.000000000000
 H   -2.674565275890   -2.453340059939    0.000000000000
 C    0.701458724110   -0.482550059939    0.000000000000
 H    1.632812724110    0.089988940061    0.000000000000
 C   -1.740284275890   -0.500047059939    0.000000000000
 H   -2.692283275890    0.042673940061    0.000000000000
 C   -0.524007275890    0.207734940061    0.000000000000
 O   -0.463460275890    1.588195940061    0.000000000000
 H   -1.366591275890    1.936622940061    0.000000000000
NA    2.109137112832    2.926755866078    0.000000000000
