14

 C   -0.576314473333   -2.643802690368    0.000000000000
 H   -0.568592473333   -3.736977690368    0.000000000000
 C    0.634161526667   -1.923963690368    0.000000000000
 H    1.589180526667   -2.457662690368    0.000000000000
 C   -1.796138473333   -1.943796690368    0.000000000000
 H   -2.744270473334   -2.489608690368    0.000000000000
 C    0.631753526667   -0.518818690368    0.000000000000
 H    1.563107526667    0.053720309632    0.000000000000
 C   -1.809989473333   -0.536315690368    0.000000000000
 H   -2.761988473334    0.006405309632    0.000000000000
 C   -0.593712473333    0.171466309632    0.000000000000
 O   -0.533165473333    1.551927309632    0.000000000000
 H   -1.436296473333    1.900354309632    0.000000000000
NA    2.394272934523    3.075116190962    0.000000000000
