14

 C   -0.593740772694   -2.652869847975    0.000000000000
 H   -0.586018772694   -3.746044847975    0.000000000000
 C    0.616735227306   -1.933030847975    0.000000000000
 H    1.571754227306   -2.466729847975    0.000000000000
 C   -1.813564772694   -1.952863847975    0.000000000000
 H   -2.761696772694   -2.498675847975    0.000000000000
 C    0.614327227306   -0.527885847975    0.000000000000
 H    1.545681227306    0.044653152025    0.000000000000
 C   -1.827415772694   -0.545382847975    0.000000000000
 H   -2.779414772694   -0.002661847975    0.000000000000
 C   -0.611138772694    0.162399152025    0.000000000000
 O   -0.550591772694    1.542860152025    0.000000000000
 H   -1.453722772694    1.891287152025    0.000000000000
NA    2.465556889946    3.112206272183    0.000000000000
