14

 C   -0.733151167581   -2.725407108831    0.000000000000
 H   -0.725429167581   -3.818582108831    0.000000000000
 C    0.477324832419   -2.005568108831    0.000000000000
 H    1.432343832419   -2.539267108831    0.000000000000
 C   -1.952975167581   -2.025401108831    0.000000000000
 H   -2.901107167581   -2.571213108831    0.000000000000
 C    0.474916832419   -0.600423108831    0.000000000000
 H    1.406270832419   -0.027884108831    0.000000000000
 C   -1.966826167581   -0.617920108831    0.000000000000
 H   -2.918825167581   -0.075199108831    0.000000000000
 C   -0.750549167581    0.089861891169    0.000000000000
 O   -0.690002167581    1.470322891169    0.000000000000
 H   -1.593133167581    1.818749891169    0.000000000000
NA    3.035828533328    3.408926921952    0.000000000000
