14

 C   -0.768003766302   -2.743541424046    0.000000000000
 H   -0.760281766302   -3.836716424046    0.000000000000
 C    0.442472233698   -2.023702424046    0.000000000000
 H    1.397491233698   -2.557401424046    0.000000000000
 C   -1.987827766302   -2.043535424046    0.000000000000
 H   -2.935959766302   -2.589347424046    0.000000000000
 C    0.440064233698   -0.618557424046    0.000000000000
 H    1.371418233698   -0.046018424046    0.000000000000
 C   -2.001678766302   -0.636054424046    0.000000000000
 H   -2.953677766302   -0.093333424046    0.000000000000
 C   -0.785401766302    0.071727575954    0.000000000000
 O   -0.724854766302    1.452188575954    0.000000000000
 H   -1.627985766302    1.800615575954    0.000000000000
NA    3.178396444173    3.483107084394    0.000000000000
