14

 C   -0.785430065663   -2.752608581653    0.000000000000
 H   -0.777708065663   -3.845783581653    0.000000000000
 C    0.425045934337   -2.032769581653    0.000000000000
 H    1.380064934337   -2.566468581653    0.000000000000
 C   -2.005254065663   -2.052602581653    0.000000000000
 H   -2.953386065663   -2.598414581653    0.000000000000
 C    0.422637934337   -0.627624581653    0.000000000000
 H    1.353991934337   -0.055085581653    0.000000000000
 C   -2.019105065663   -0.645121581653    0.000000000000
 H   -2.971104065663   -0.102400581653    0.000000000000
 C   -0.802828065663    0.062660418347    0.000000000000
 O   -0.742281065663    1.443121418347    0.000000000000
 H   -1.645412065663    1.791548418347    0.000000000000
NA    3.249680399596    3.520197165615    0.000000000000
