14

 C   -0.820282664385   -2.770742896867    0.000000000000
 H   -0.812560664385   -3.863917896867    0.000000000000
 C    0.390193335615   -2.050903896867    0.000000000000
 H    1.345212335615   -2.584602896867    0.000000000000
 C   -2.040106664385   -2.070736896867    0.000000000000
 H   -2.988238664385   -2.616548896867    0.000000000000
 C    0.387785335615   -0.645758896867    0.000000000000
 H    1.319139335615   -0.073219896867    0.000000000000
 C   -2.053957664385   -0.663255896867    0.000000000000
 H   -3.005956664385   -0.120534896867    0.000000000000
 C   -0.837680664385    0.044526103133    0.000000000000
 O   -0.777133664385    1.424987103133    0.000000000000
 H   -1.680264664385    1.773414103133    0.000000000000
NA    3.392248310441    3.594377328058    0.000000000000
