14

 C   -0.837708963745   -2.779810054474    0.000000000000
 H   -0.829986963745   -3.872985054474    0.000000000000
 C    0.372767036255   -2.059971054474    0.000000000000
 H    1.327786036255   -2.593670054474    0.000000000000
 C   -2.057532963745   -2.079804054474    0.000000000000
 H   -3.005664963745   -2.625616054474    0.000000000000
 C    0.370359036255   -0.654826054474    0.000000000000
 H    1.301713036255   -0.082287054474    0.000000000000
 C   -2.071383963745   -0.672323054474    0.000000000000
 H   -3.023382963745   -0.129602054474    0.000000000000
 C   -0.855106963745    0.035458945526    0.000000000000
 O   -0.794559963745    1.415919945526    0.000000000000
 H   -1.697690963745    1.764346945526    0.000000000000
NA    3.463532265864    3.631467409279    0.000000000000
