14

 C   -0.889987861828   -2.807011527295    0.000000000000
 H   -0.882265861828   -3.900186527295    0.000000000000
 C    0.320488138172   -2.087172527295    0.000000000000
 H    1.275507138172   -2.620871527295    0.000000000000
 C   -2.109811861828   -2.107005527295    0.000000000000
 H   -3.057943861828   -2.652817527295    0.000000000000
 C    0.318080138172   -0.682027527295    0.000000000000
 H    1.249434138172   -0.109488527295    0.000000000000
 C   -2.123662861828   -0.699524527295    0.000000000000
 H   -3.075661861828   -0.156803527295    0.000000000000
 C   -0.907385861828    0.008257472705    0.000000000000
 O   -0.846838861828    1.388718472705    0.000000000000
 H   -1.749969861828    1.737145472705    0.000000000000
NA    3.677384132132    3.742737652942    0.000000000000
