14

 C   -0.907414161188   -2.816078684902    0.000000000000
 H   -0.899692161188   -3.909253684902    0.000000000000
 C    0.303061838812   -2.096239684902    0.000000000000
 H    1.258080838812   -2.629938684902    0.000000000000
 C   -2.127238161188   -2.116072684902    0.000000000000
 H   -3.075370161188   -2.661884684902    0.000000000000
 C    0.300653838812   -0.691094684902    0.000000000000
 H    1.232007838812   -0.118555684902    0.000000000000
 C   -2.141089161188   -0.708591684902    0.000000000000
 H   -3.093088161188   -0.165870684902    0.000000000000
 C   -0.924812161188   -0.000809684902    0.000000000000
 O   -0.864265161188    1.379651315098    0.000000000000
 H   -1.767396161188    1.728078315098    0.000000000000
NA    3.748668087555    3.779827734163    0.000000000000
