14

 C   -0.994545657992   -2.861414472938    0.000000000000
 H   -0.986823657992   -3.954589472938    0.000000000000
 C    0.215930342008   -2.141575472938    0.000000000000
 H    1.170949342008   -2.675274472938    0.000000000000
 C   -2.214369657992   -2.161408472938    0.000000000000
 H   -3.162501657992   -2.707220472938    0.000000000000
 C    0.213522342008   -0.736430472938    0.000000000000
 H    1.144876342008   -0.163891472938    0.000000000000
 C   -2.228220657992   -0.753927472938    0.000000000000
 H   -3.180219657992   -0.211206472938    0.000000000000
 C   -1.011943657992   -0.046145472938    0.000000000000
 O   -0.951396657992    1.334315527062    0.000000000000
 H   -1.854527657992    1.682742527062    0.000000000000
NA    4.105087864669    3.965278140269    0.000000000000
