14

 C   -1.011971957353   -2.870481630545    0.000000000000
 H   -1.004249957353   -3.963656630545    0.000000000000
 C    0.198504042647   -2.150642630545    0.000000000000
 H    1.153523042647   -2.684341630545    0.000000000000
 C   -2.231795957353   -2.170475630545    0.000000000000
 H   -3.179927957353   -2.716287630545    0.000000000000
 C    0.196096042647   -0.745497630545    0.000000000000
 H    1.127450042647   -0.172958630545    0.000000000000
 C   -2.245646957353   -0.762994630545    0.000000000000
 H   -3.197645957353   -0.220273630545    0.000000000000
 C   -1.029369957353   -0.055212630545    0.000000000000
 O   -0.968822957353    1.325248369455    0.000000000000
 H   -1.871953957353    1.673675369455    0.000000000000
NA    4.176371820091    4.002368221490    0.000000000000
