14

 C   -1.029398256714   -2.879548788152    0.000000000000
 H   -1.021676256714   -3.972723788152    0.000000000000
 C    0.181077743286   -2.159709788152    0.000000000000
 H    1.136096743286   -2.693408788152    0.000000000000
 C   -2.249222256714   -2.179542788152    0.000000000000
 H   -3.197354256714   -2.725354788152    0.000000000000
 C    0.178669743286   -0.754564788152    0.000000000000
 H    1.110023743286   -0.182025788152    0.000000000000
 C   -2.263073256714   -0.772061788152    0.000000000000
 H   -3.215072256714   -0.229340788152    0.000000000000
 C   -1.046796256714   -0.064279788152    0.000000000000
 O   -0.986249256714    1.316181211848    0.000000000000
 H   -1.889380256714    1.664608211848    0.000000000000
NA    4.247655775514    4.039458302711    0.000000000000
