14

 C   -1.046824556075   -2.888615945759    0.000000000000
 H   -1.039102556075   -3.981790945759    0.000000000000
 C    0.163651443925   -2.168776945759    0.000000000000
 H    1.118670443925   -2.702475945759    0.000000000000
 C   -2.266648556075   -2.188609945759    0.000000000000
 H   -3.214780556075   -2.734421945759    0.000000000000
 C    0.161243443925   -0.763631945759    0.000000000000
 H    1.092597443925   -0.191092945759    0.000000000000
 C   -2.280499556075   -0.781128945759    0.000000000000
 H   -3.232498556075   -0.238407945759    0.000000000000
 C   -1.064222556075   -0.073346945759    0.000000000000
 O   -1.003675556075    1.307114054241    0.000000000000
 H   -1.906806556075    1.655541054241    0.000000000000
NA    4.318939730937    4.076548383932    0.000000000000
