14

 C   -1.081677154796   -2.906750260973    0.000000000000
 H   -1.073955154796   -3.999925260973    0.000000000000
 C    0.128798845204   -2.186911260973    0.000000000000
 H    1.083817845204   -2.720610260973    0.000000000000
 C   -2.301501154796   -2.206744260973    0.000000000000
 H   -3.249633154796   -2.752556260973    0.000000000000
 C    0.126390845204   -0.781766260973    0.000000000000
 H    1.057744845204   -0.209227260973    0.000000000000
 C   -2.315352154796   -0.799263260973    0.000000000000
 H   -3.267351154796   -0.256542260973    0.000000000000
 C   -1.099075154796   -0.091481260973    0.000000000000
 O   -1.038528154796    1.288979739027    0.000000000000
 H   -1.941659154796    1.637406739027    0.000000000000
NA    4.461507641782    4.150728546374    0.000000000000
