14

 C   -1.099103454157   -2.915817418580    0.000000000000
 H   -1.091381454157   -4.008992418580    0.000000000000
 C    0.111372545843   -2.195978418580    0.000000000000
 H    1.066391545843   -2.729677418580    0.000000000000
 C   -2.318927454157   -2.215811418580    0.000000000000
 H   -3.267059454157   -2.761623418580    0.000000000000
 C    0.108964545843   -0.790833418580    0.000000000000
 H    1.040318545843   -0.218294418580    0.000000000000
 C   -2.332778454157   -0.808330418580    0.000000000000
 H   -3.284777454157   -0.265609418580    0.000000000000
 C   -1.116501454157   -0.100548418580    0.000000000000
 O   -1.055954454157    1.279912581420    0.000000000000
 H   -1.959085454157    1.628339581420    0.000000000000
NA    4.532791597205    4.187818627595    0.000000000000
