14

 C   -1.133956052879   -2.933951733794    0.000000000000
 H   -1.126234052879   -4.027126733794    0.000000000000
 C    0.076519947121   -2.214112733794    0.000000000000
 H    1.031538947121   -2.747811733794    0.000000000000
 C   -2.353780052879   -2.233945733794    0.000000000000
 H   -3.301912052879   -2.779757733794    0.000000000000
 C    0.074111947121   -0.808967733794    0.000000000000
 H    1.005465947121   -0.236428733794    0.000000000000
 C   -2.367631052879   -0.826464733794    0.000000000000
 H   -3.319630052879   -0.283743733794    0.000000000000
 C   -1.151354052879   -0.118682733794    0.000000000000
 O   -1.090807052879    1.261778266206    0.000000000000
 H   -1.993938052879    1.610205266206    0.000000000000
NA    4.675359508051    4.261998790037    0.000000000000
