14

 C   -1.273366447765   -3.006488994651    0.000000000000
 H   -1.265644447765   -4.099663994651    0.000000000000
 C   -0.062890447765   -2.286649994651    0.000000000000
 H    0.892128552235   -2.820348994651    0.000000000000
 C   -2.493190447765   -2.306482994651    0.000000000000
 H   -3.441322447765   -2.852294994651    0.000000000000
 C   -0.065298447765   -0.881504994651    0.000000000000
 H    0.866055552235   -0.308965994651    0.000000000000
 C   -2.507041447765   -0.899001994651    0.000000000000
 H   -3.459040447765   -0.356280994651    0.000000000000
 C   -1.290764447765   -0.191219994651    0.000000000000
 O   -1.230217447765    1.189241005349    0.000000000000
 H   -2.133348447765    1.537668005349    0.000000000000
NA    5.245631151433    4.558719439806    0.000000000000
