14

 C   -1.395350543291   -3.069959097901    0.000000000000
 H   -1.387628543291   -4.163134097901    0.000000000000
 C   -0.184874543291   -2.350120097901    0.000000000000
 H    0.770144456709   -2.883819097901    0.000000000000
 C   -2.615174543291   -2.369953097901    0.000000000000
 H   -3.563306543291   -2.915765097901    0.000000000000
 C   -0.187282543291   -0.944975097901    0.000000000000
 H    0.744071456709   -0.372436097901    0.000000000000
 C   -2.629025543291   -0.962472097901    0.000000000000
 H   -3.581024543291   -0.419751097901    0.000000000000
 C   -1.412748543291   -0.254690097901    0.000000000000
 O   -1.352201543291    1.125770902099    0.000000000000
 H   -2.255332543291    1.474197902099    0.000000000000
NA    5.744618839392    4.818350008354    0.000000000000
