14

 C   -1.412776842651   -3.079026255508    0.000000000000
 H   -1.405054842651   -4.172201255508    0.000000000000
 C   -0.202300842651   -2.359187255508    0.000000000000
 H    0.752718157349   -2.892886255508    0.000000000000
 C   -2.632600842651   -2.379020255508    0.000000000000
 H   -3.580732842651   -2.924832255508    0.000000000000
 C   -0.204708842651   -0.954042255508    0.000000000000
 H    0.726645157349   -0.381503255508    0.000000000000
 C   -2.646451842651   -0.971539255508    0.000000000000
 H   -3.598450842651   -0.428818255508    0.000000000000
 C   -1.430174842651   -0.263757255508    0.000000000000
 O   -1.369627842651    1.116703744492    0.000000000000
 H   -2.272758842651    1.465130744492    0.000000000000
NA    5.815902794814    4.855440089575    0.000000000000
