14

 C   -1.430203142012   -3.088093413115    0.000000000000
 H   -1.422481142012   -4.181268413115    0.000000000000
 C   -0.219727142012   -2.368254413115    0.000000000000
 H    0.735291857988   -2.901953413115    0.000000000000
 C   -2.650027142012   -2.388087413115    0.000000000000
 H   -3.598159142012   -2.933899413115    0.000000000000
 C   -0.222135142012   -0.963109413115    0.000000000000
 H    0.709218857988   -0.390570413115    0.000000000000
 C   -2.663878142012   -0.980606413115    0.000000000000
 H   -3.615877142012   -0.437885413115    0.000000000000
 C   -1.447601142012   -0.272824413115    0.000000000000
 O   -1.387054142012    1.107636586885    0.000000000000
 H   -2.290185142012    1.456063586885    0.000000000000
NA    5.887186750237    4.892530170796    0.000000000000
