14

 C   -1.447629441373   -3.097160570722    0.000000000000
 H   -1.439907441373   -4.190335570722    0.000000000000
 C   -0.237153441373   -2.377321570722    0.000000000000
 H    0.717865558627   -2.911020570722    0.000000000000
 C   -2.667453441373   -2.397154570722    0.000000000000
 H   -3.615585441373   -2.942966570722    0.000000000000
 C   -0.239561441373   -0.972176570722    0.000000000000
 H    0.691792558627   -0.399637570722    0.000000000000
 C   -2.681304441373   -0.989673570722    0.000000000000
 H   -3.633303441373   -0.446952570722    0.000000000000
 C   -1.465027441373   -0.281891570722    0.000000000000
 O   -1.404480441373    1.098569429278    0.000000000000
 H   -2.307611441373    1.446996429278    0.000000000000
NA    5.958470705660    4.929620252017    0.000000000000
