14

 C   -1.465055740734   -3.106227728329    0.000000000000
 H   -1.457333740734   -4.199402728329    0.000000000000
 C   -0.254579740734   -2.386388728329    0.000000000000
 H    0.700439259266   -2.920087728329    0.000000000000
 C   -2.684879740734   -2.406221728329    0.000000000000
 H   -3.633011740734   -2.952033728329    0.000000000000
 C   -0.256987740734   -0.981243728329    0.000000000000
 H    0.674366259266   -0.408704728329    0.000000000000
 C   -2.698730740734   -0.998740728329    0.000000000000
 H   -3.650729740734   -0.456019728329    0.000000000000
 C   -1.482453740734   -0.290958728329    0.000000000000
 O   -1.421906740734    1.089502271671    0.000000000000
 H   -2.325037740734    1.437929271671    0.000000000000
NA    6.029754661083    4.966710333238    0.000000000000
