14

 C   -1.517334638816   -3.133429201150    0.000000000000
 H   -1.509612638816   -4.226604201150    0.000000000000
 C   -0.306858638816   -2.413590201150    0.000000000000
 H    0.648160361184   -2.947289201150    0.000000000000
 C   -2.737158638816   -2.433423201150    0.000000000000
 H   -3.685290638816   -2.979235201150    0.000000000000
 C   -0.309266638816   -1.008445201150    0.000000000000
 H    0.622087361184   -0.435906201150    0.000000000000
 C   -2.751009638816   -1.025942201150    0.000000000000
 H   -3.703008638816   -0.483221201150    0.000000000000
 C   -1.534732638816   -0.318160201150    0.000000000000
 O   -1.474185638816    1.062300798850    0.000000000000
 H   -2.377316638816    1.410727798850    0.000000000000
NA    6.243606527351    5.077980576901    0.000000000000
