14

 C   -1.621892434981   -3.187832146793    0.000000000000
 H   -1.614170434981   -4.281007146793    0.000000000000
 C   -0.411416434981   -2.467993146793    0.000000000000
 H    0.543602565019   -3.001692146793    0.000000000000
 C   -2.841716434981   -2.487826146793    0.000000000000
 H   -3.789848434981   -3.033638146793    0.000000000000
 C   -0.413824434981   -1.062848146793    0.000000000000
 H    0.517529565019   -0.490309146793    0.000000000000
 C   -2.855567434981   -1.080345146793    0.000000000000
 H   -3.807566434981   -0.537624146793    0.000000000000
 C   -1.639290434981   -0.372563146793    0.000000000000
 O   -1.578743434981    1.007897853207    0.000000000000
 H   -2.481874434981    1.356324853207    0.000000000000
NA    6.671310259887    5.300521064228    0.000000000000
