14

 C   -1.639318734342   -3.196899304400    0.000000000000
 H   -1.631596734342   -4.290074304400    0.000000000000
 C   -0.428842734342   -2.477060304400    0.000000000000
 H    0.526176265658   -3.010759304400    0.000000000000
 C   -2.859142734342   -2.496893304400    0.000000000000
 H   -3.807274734342   -3.042705304400    0.000000000000
 C   -0.431250734342   -1.071915304400    0.000000000000
 H    0.500103265658   -0.499376304400    0.000000000000
 C   -2.872993734342   -1.089412304400    0.000000000000
 H   -3.824992734342   -0.546691304400    0.000000000000
 C   -1.656716734342   -0.381630304400    0.000000000000
 O   -1.596169734342    0.998830695600    0.000000000000
 H   -2.499300734342    1.347257695600    0.000000000000
NA    6.742594215310    5.337611145449    0.000000000000
