14

 C   -1.709023931785   -3.233167934828    0.000000000000
 H   -1.701301931785   -4.326342934828    0.000000000000
 C   -0.498547931785   -2.513328934828    0.000000000000
 H    0.456471068215   -3.047027934828    0.000000000000
 C   -2.928847931785   -2.533161934828    0.000000000000
 H   -3.876979931785   -3.078973934828    0.000000000000
 C   -0.500955931785   -1.108183934828    0.000000000000
 H    0.430398068215   -0.535644934828    0.000000000000
 C   -2.942698931785   -1.125680934828    0.000000000000
 H   -3.894697931785   -0.582959934828    0.000000000000
 C   -1.726421931785   -0.417898934828    0.000000000000
 O   -1.665874931785    0.962562065172    0.000000000000
 H   -2.569005931785    1.310989065172    0.000000000000
NA    7.027730037001    5.485971470333    0.000000000000
