13

 C    4.935567938477    0.490613916047    0.000000000000
 H    4.468947938477    1.482780916047    0.000000000000
 H    5.572716938477    0.386196916047    0.892506000000
 H    5.572716938477    0.386196916047   -0.892506000000
 C    3.837392938477   -0.560471083953    0.000000000000
 O    2.631229938477   -0.282417083953    0.000000000000
 N    4.268321938477   -1.860620083953    0.000000000000
 H    5.260498938477   -2.054521083953    0.000000000000
 C    3.309986938477   -2.959148083953    0.000000000000
 H    2.665921938477   -2.910669083953    0.890708000000
 H    2.665921938477   -2.910669083953   -0.890708000000
 H    3.863212938477   -3.907573083953    0.000000000000
 K   -7.113197402601    1.963943482484    0.000000000000
