13

 C    2.291763644230    1.100084078232    0.000000000000
 H    1.825143644230    2.092251078232    0.000000000000
 H    2.928912644230    0.995667078232    0.892506000000
 H    2.928912644230    0.995667078232   -0.892506000000
 C    1.193588644230    0.048999078232    0.000000000000
 O   -0.012574355770    0.327053078232    0.000000000000
 N    1.624517644230   -1.251149921768    0.000000000000
 H    2.616694644230   -1.445050921768    0.000000000000
 C    0.666182644230   -2.349677921768    0.000000000000
 H    0.022117644230   -2.301198921768    0.890708000000
 H    0.022117644230   -2.301198921768   -0.890708000000
 H    1.219408644230   -3.298102921768    0.000000000000
 K   -2.156348370807    0.821252402849    0.000000000000
