13

 C    2.359553497929    1.084456638176    0.000000000000
 H    1.892933497929    2.076623638176    0.000000000000
 H    2.996702497929    0.980039638176    0.892506000000
 H    2.996702497929    0.980039638176   -0.892506000000
 C    1.261378497929    0.033371638176    0.000000000000
 O    0.055215497929    0.311425638176    0.000000000000
 N    1.692307497929   -1.266777361824    0.000000000000
 H    2.684484497929   -1.460678361824    0.000000000000
 C    0.733972497929   -2.365305361824    0.000000000000
 H    0.089907497929   -2.316826361824    0.890708000000
 H    0.089907497929   -2.316826361824   -0.890708000000
 H    1.287198497929   -3.313730361824    0.000000000000
 K   -2.283447063930    0.850552174121    0.000000000000
