13

 C    2.630712912723    1.021946877952    0.000000000000
 H    2.164092912723    2.014113877952    0.000000000000
 H    3.267861912723    0.917529877952    0.892506000000
 H    3.267861912723    0.917529877952   -0.892506000000
 C    1.532537912723   -0.029138122048    0.000000000000
 O    0.326374912723    0.248915877952    0.000000000000
 N    1.963466912723   -1.329287122048    0.000000000000
 H    2.955643912723   -1.523188122048    0.000000000000
 C    1.005131912723   -2.427815122048    0.000000000000
 H    0.361066912723   -2.379336122048    0.890708000000
 H    0.361066912723   -2.379336122048   -0.890708000000
 H    1.558357912723   -3.376240122048    0.000000000000
 K   -2.791841836422    0.967751259212    0.000000000000
