13

 C    2.664607839573    1.014133157924    0.000000000000
 H    2.197987839573    2.006300157924    0.000000000000
 H    3.301756839573    0.909716157924    0.892506000000
 H    3.301756839573    0.909716157924   -0.892506000000
 C    1.566432839573   -0.036951842076    0.000000000000
 O    0.360269839573    0.241102157924    0.000000000000
 N    1.997361839573   -1.337100842076    0.000000000000
 H    2.989538839573   -1.531001842076    0.000000000000
 C    1.039026839573   -2.435628842076    0.000000000000
 H    0.394961839573   -2.387149842076    0.890708000000
 H    0.394961839573   -2.387149842076   -0.890708000000
 H    1.592252839573   -3.384053842076    0.000000000000
 K   -2.855391182983    0.982401144849    0.000000000000
