13

 C    2.698502766422    1.006319437896    0.000000000000
 H    2.231882766422    1.998486437896    0.000000000000
 H    3.335651766422    0.901902437896    0.892506000000
 H    3.335651766422    0.901902437896   -0.892506000000
 C    1.600327766422   -0.044765562104    0.000000000000
 O    0.394164766422    0.233288437896    0.000000000000
 N    2.031256766422   -1.344914562104    0.000000000000
 H    3.023433766422   -1.538815562104    0.000000000000
 C    1.072921766422   -2.443442562104    0.000000000000
 H    0.428856766422   -2.394963562104    0.890708000000
 H    0.428856766422   -2.394963562104   -0.890708000000
 H    1.626147766422   -3.391867562104    0.000000000000
 K   -2.918940529545    0.997051030485    0.000000000000
