13

 C    2.732397693271    0.998505717868    0.000000000000
 H    2.265777693271    1.990672717868    0.000000000000
 H    3.369546693271    0.894088717868    0.892506000000
 H    3.369546693271    0.894088717868   -0.892506000000
 C    1.634222693271   -0.052579282132    0.000000000000
 O    0.428059693271    0.225474717868    0.000000000000
 N    2.065151693271   -1.352728282132    0.000000000000
 H    3.057328693271   -1.546629282132    0.000000000000
 C    1.106816693271   -2.451256282132    0.000000000000
 H    0.462751693271   -2.402777282132    0.890708000000
 H    0.462751693271   -2.402777282132   -0.890708000000
 H    1.660042693271   -3.399681282132    0.000000000000
 K   -2.982489876106    1.011700916121    0.000000000000
