13

 C    2.800187546970    0.982878277812    0.000000000000
 H    2.333567546970    1.975045277812    0.000000000000
 H    3.437336546970    0.878461277812    0.892506000000
 H    3.437336546970    0.878461277812   -0.892506000000
 C    1.702012546970   -0.068206722188    0.000000000000
 O    0.495849546970    0.209847277812    0.000000000000
 N    2.132941546970   -1.368355722188    0.000000000000
 H    3.125118546970   -1.562256722188    0.000000000000
 C    1.174606546970   -2.466883722188    0.000000000000
 H    0.530541546970   -2.418404722188    0.890708000000
 H    0.530541546970   -2.418404722188   -0.890708000000
 H    1.727832546970   -3.415308722188    0.000000000000
 K   -3.109588569229    1.041000687394    0.000000000000
