13

 C    2.834082473819    0.975064557784    0.000000000000
 H    2.367462473819    1.967231557784    0.000000000000
 H    3.471231473819    0.870647557784    0.892506000000
 H    3.471231473819    0.870647557784   -0.892506000000
 C    1.735907473819   -0.076020442216    0.000000000000
 O    0.529744473819    0.202033557784    0.000000000000
 N    2.166836473819   -1.376169442216    0.000000000000
 H    3.159013473819   -1.570070442216    0.000000000000
 C    1.208501473819   -2.474697442216    0.000000000000
 H    0.564436473819   -2.426218442216    0.890708000000
 H    0.564436473819   -2.426218442216   -0.890708000000
 H    1.761727473819   -3.423122442216    0.000000000000
 K   -3.173137915791    1.055650573030    0.000000000000
