13

 C    2.901872327518    0.959437117728    0.000000000000
 H    2.435252327518    1.951604117728    0.000000000000
 H    3.539021327518    0.855020117728    0.892506000000
 H    3.539021327518    0.855020117728   -0.892506000000
 C    1.803697327518   -0.091647882272    0.000000000000
 O    0.597534327518    0.186406117728    0.000000000000
 N    2.234626327518   -1.391796882272    0.000000000000
 H    3.226803327518   -1.585697882272    0.000000000000
 C    1.276291327518   -2.490324882272    0.000000000000
 H    0.632226327518   -2.441845882272    0.890708000000
 H    0.632226327518   -2.441845882272   -0.890708000000
 H    1.829517327518   -3.438749882272    0.000000000000
 K   -3.300236608913    1.084950344303    0.000000000000
