13

 C    3.003557108066    0.935995957644    0.000000000000
 H    2.536937108066    1.928162957644    0.000000000000
 H    3.640706108066    0.831578957644    0.892506000000
 H    3.640706108066    0.831578957644   -0.892506000000
 C    1.905382108066   -0.115089042356    0.000000000000
 O    0.699219108066    0.162964957644    0.000000000000
 N    2.336311108066   -1.415238042356    0.000000000000
 H    3.328488108066   -1.609139042356    0.000000000000
 C    1.377976108066   -2.513766042356    0.000000000000
 H    0.733911108066   -2.465287042356    0.890708000000
 H    0.733911108066   -2.465287042356   -0.890708000000
 H    1.931202108066   -3.462191042356    0.000000000000
 K   -3.490884648598    1.128900001212    0.000000000000
