13

 C    3.037452034915    0.928182237616    0.000000000000
 H    2.570832034915    1.920349237616    0.000000000000
 H    3.674601034915    0.823765237616    0.892506000000
 H    3.674601034915    0.823765237616   -0.892506000000
 C    1.939277034915   -0.122902762384    0.000000000000
 O    0.733114034915    0.155151237616    0.000000000000
 N    2.370206034915   -1.423051762384    0.000000000000
 H    3.362383034915   -1.616952762384    0.000000000000
 C    1.411871034915   -2.521579762384    0.000000000000
 H    0.767806034915   -2.473100762384    0.890708000000
 H    0.767806034915   -2.473100762384   -0.890708000000
 H    1.965097034915   -3.470004762384    0.000000000000
 K   -3.554433995159    1.143549886848    0.000000000000
