13

 C    3.071346961764    0.920368517588    0.000000000000
 H    2.604726961764    1.912535517588    0.000000000000
 H    3.708495961764    0.815951517588    0.892506000000
 H    3.708495961764    0.815951517588   -0.892506000000
 C    1.973171961764   -0.130716482412    0.000000000000
 O    0.767008961764    0.147337517588    0.000000000000
 N    2.404100961764   -1.430865482412    0.000000000000
 H    3.396277961764   -1.624766482412    0.000000000000
 C    1.445765961764   -2.529393482412    0.000000000000
 H    0.801700961764   -2.480914482412    0.890708000000
 H    0.801700961764   -2.480914482412   -0.890708000000
 H    1.998991961764   -3.477818482412    0.000000000000
 K   -3.617983341721    1.158199772485    0.000000000000
