13

 C    3.139136815463    0.904741077532    0.000000000000
 H    2.672516815463    1.896908077532    0.000000000000
 H    3.776285815463    0.800324077532    0.892506000000
 H    3.776285815463    0.800324077532   -0.892506000000
 C    2.040961815463   -0.146343922468    0.000000000000
 O    0.834798815463    0.131710077532    0.000000000000
 N    2.471890815463   -1.446492922468    0.000000000000
 H    3.464067815463   -1.640393922468    0.000000000000
 C    1.513555815463   -2.545020922468    0.000000000000
 H    0.869490815463   -2.496541922468    0.890708000000
 H    0.869490815463   -2.496541922468   -0.890708000000
 H    2.066781815463   -3.493445922468    0.000000000000
 K   -3.745082034844    1.187499543757    0.000000000000
