13

 C    3.173031742312    0.896927357504    0.000000000000
 H    2.706411742312    1.889094357504    0.000000000000
 H    3.810180742312    0.792510357504    0.892506000000
 H    3.810180742312    0.792510357504   -0.892506000000
 C    2.074856742312   -0.154157642496    0.000000000000
 O    0.868693742312    0.123896357504    0.000000000000
 N    2.505785742312   -1.454306642496    0.000000000000
 H    3.497962742312   -1.648207642496    0.000000000000
 C    1.547450742312   -2.552834642496    0.000000000000
 H    0.903385742312   -2.504355642496    0.890708000000
 H    0.903385742312   -2.504355642496   -0.890708000000
 H    2.100676742312   -3.501259642496    0.000000000000
 K   -3.808631381405    1.202149429394    0.000000000000
