13

 C    3.410296230258    0.842231317308    0.000000000000
 H    2.943676230258    1.834398317308    0.000000000000
 H    4.047445230258    0.737814317308    0.892506000000
 H    4.047445230258    0.737814317308   -0.892506000000
 C    2.312121230258   -0.208853682692    0.000000000000
 O    1.105958230258    0.069200317308    0.000000000000
 N    2.743050230258   -1.509002682692    0.000000000000
 H    3.735227230258   -1.702903682692    0.000000000000
 C    1.784715230258   -2.607530682692    0.000000000000
 H    1.140650230258   -2.559051682692    0.890708000000
 H    1.140650230258   -2.559051682692   -0.890708000000
 H    2.337941230258   -3.555955682692    0.000000000000
 K   -4.253476807335    1.304698628848    0.000000000000
