13

 C    3.444191157107    0.834417597280    0.000000000000
 H    2.977571157107    1.826584597280    0.000000000000
 H    4.081340157107    0.730000597280    0.892506000000
 H    4.081340157107    0.730000597280   -0.892506000000
 C    2.346016157107   -0.216667402720    0.000000000000
 O    1.139853157107    0.061386597280    0.000000000000
 N    2.776945157107   -1.516816402720    0.000000000000
 H    3.769122157107   -1.710717402720    0.000000000000
 C    1.818610157107   -2.615344402720    0.000000000000
 H    1.174545157107   -2.566865402720    0.890708000000
 H    1.174545157107   -2.566865402720   -0.890708000000
 H    2.371836157107   -3.563769402720    0.000000000000
 K   -4.317026153897    1.319348514485    0.000000000000
