13

 C    3.478086083956    0.826603877252    0.000000000000
 H    3.011466083956    1.818770877252    0.000000000000
 H    4.115235083956    0.722186877252    0.892506000000
 H    4.115235083956    0.722186877252   -0.892506000000
 C    2.379911083956   -0.224481122748    0.000000000000
 O    1.173748083956    0.053572877252    0.000000000000
 N    2.810840083956   -1.524630122748    0.000000000000
 H    3.803017083956   -1.718531122748    0.000000000000
 C    1.852505083956   -2.623158122748    0.000000000000
 H    1.208440083956   -2.574679122748    0.890708000000
 H    1.208440083956   -2.574679122748   -0.890708000000
 H    2.405731083956   -3.571583122748    0.000000000000
 K   -4.380575500458    1.333998400121    0.000000000000
