13

 C    3.545875937655    0.810976437195    0.000000000000
 H    3.079255937655    1.803143437195    0.000000000000
 H    4.183024937655    0.706559437195    0.892506000000
 H    4.183024937655    0.706559437195   -0.892506000000
 C    2.447700937655   -0.240108562805    0.000000000000
 O    1.241537937655    0.037945437195    0.000000000000
 N    2.878629937655   -1.540257562805    0.000000000000
 H    3.870806937655   -1.734158562805    0.000000000000
 C    1.920294937655   -2.638785562805    0.000000000000
 H    1.276229937655   -2.590306562805    0.890708000000
 H    1.276229937655   -2.590306562805   -0.890708000000
 H    2.473520937655   -3.587210562805    0.000000000000
 K   -4.507674193581    1.363298171394    0.000000000000
