13

 C    3.715350571902    0.771907837055    0.000000000000
 H    3.248730571902    1.764074837055    0.000000000000
 H    4.352499571902    0.667490837055    0.892506000000
 H    4.352499571902    0.667490837055   -0.892506000000
 C    2.617175571902   -0.279177162945    0.000000000000
 O    1.411012571902   -0.001123162945    0.000000000000
 N    3.048104571902   -1.579326162945    0.000000000000
 H    4.040281571902   -1.773227162945    0.000000000000
 C    2.089769571902   -2.677854162945    0.000000000000
 H    1.445704571902   -2.629375162945    0.890708000000
 H    1.445704571902   -2.629375162945   -0.890708000000
 H    2.642995571902   -3.626279162945    0.000000000000
 K   -4.825420926389    1.436547599575    0.000000000000
