13

 C    3.783140425600    0.756280396999    0.000000000000
 H    3.316520425600    1.748447396999    0.000000000000
 H    4.420289425600    0.651863396999    0.892506000000
 H    4.420289425600    0.651863396999   -0.892506000000
 C    2.684965425600   -0.294804603001    0.000000000000
 O    1.478802425600   -0.016750603001    0.000000000000
 N    3.115894425600   -1.594953603001    0.000000000000
 H    4.108071425600   -1.788854603001    0.000000000000
 C    2.157559425600   -2.693481603001    0.000000000000
 H    1.513494425600   -2.645002603001    0.890708000000
 H    1.513494425600   -2.645002603001   -0.890708000000
 H    2.710785425600   -3.641906603001    0.000000000000
 K   -4.952519619511    1.465847370848    0.000000000000
