13

 C    3.817035352449    0.748466676971    0.000000000000
 H    3.350415352450    1.740633676971    0.000000000000
 H    4.454184352450    0.644049676971    0.892506000000
 H    4.454184352450    0.644049676971   -0.892506000000
 C    2.718860352450   -0.302618323029    0.000000000000
 O    1.512697352449   -0.024564323029    0.000000000000
 N    3.149789352450   -1.602767323029    0.000000000000
 H    4.141966352450   -1.796668323029    0.000000000000
 C    2.191454352450   -2.701295323029    0.000000000000
 H    1.547389352450   -2.652816323029    0.890708000000
 H    1.547389352450   -2.652816323029   -0.890708000000
 H    2.744680352450   -3.649720323029    0.000000000000
 K   -5.016068966073    1.480497256485    0.000000000000
