13

 C    3.952615059847    0.717211796859    0.000000000000
 H    3.485995059847    1.709378796859    0.000000000000
 H    4.589764059847    0.612794796859    0.892506000000
 H    4.589764059847    0.612794796859   -0.892506000000
 C    2.854440059847   -0.333873203141    0.000000000000
 O    1.648277059847   -0.055819203141    0.000000000000
 N    3.285369059847   -1.634022203141    0.000000000000
 H    4.277546059847   -1.827923203141    0.000000000000
 C    2.327034059847   -2.732550203141    0.000000000000
 H    1.682969059847   -2.684071203141    0.890708000000
 H    1.682969059847   -2.684071203141   -0.890708000000
 H    2.880260059847   -3.680975203141    0.000000000000
 K   -5.270266352319    1.539096799030    0.000000000000
