13

 C    3.986509986696    0.709398076831    0.000000000000
 H    3.519889986696    1.701565076831    0.000000000000
 H    4.623658986696    0.604981076831    0.892506000000
 H    4.623658986696    0.604981076831   -0.892506000000
 C    2.888334986696   -0.341686923169    0.000000000000
 O    1.682171986696   -0.063632923169    0.000000000000
 N    3.319263986696   -1.641835923169    0.000000000000
 H    4.311440986696   -1.835736923169    0.000000000000
 C    2.360928986696   -2.740363923169    0.000000000000
 H    1.716863986696   -2.691884923169    0.890708000000
 H    1.716863986696   -2.691884923169   -0.890708000000
 H    2.914154986696   -3.688788923169    0.000000000000
 K   -5.333815698880    1.553746684666    0.000000000000
