13

 C    4.122089694093    0.678143196719    0.000000000000
 H    3.655469694093    1.670310196719    0.000000000000
 H    4.759238694093    0.573726196719    0.892506000000
 H    4.759238694093    0.573726196719   -0.892506000000
 C    3.023914694093   -0.372941803281    0.000000000000
 O    1.817751694093   -0.094887803281    0.000000000000
 N    3.454843694093   -1.673090803281    0.000000000000
 H    4.447020694093   -1.866991803281    0.000000000000
 C    2.496508694093   -2.771618803281    0.000000000000
 H    1.852443694093   -2.723139803281    0.890708000000
 H    1.852443694093   -2.723139803281   -0.890708000000
 H    3.049734694093   -3.720043803281    0.000000000000
 K   -5.588013085126    1.612346227212    0.000000000000
