13

 C    4.155984620943    0.670329476691    0.000000000000
 H    3.689364620943    1.662496476691    0.000000000000
 H    4.793133620943    0.565912476691    0.892506000000
 H    4.793133620943    0.565912476691   -0.892506000000
 C    3.057809620943   -0.380755523309    0.000000000000
 O    1.851646620943   -0.102701523309    0.000000000000
 N    3.488738620943   -1.680904523309    0.000000000000
 H    4.480915620943   -1.874805523309    0.000000000000
 C    2.530403620943   -2.779432523309    0.000000000000
 H    1.886338620943   -2.730953523309    0.890708000000
 H    1.886338620943   -2.730953523309   -0.890708000000
 H    3.083629620943   -3.727857523309    0.000000000000
 K   -5.651562431688    1.626996112848    0.000000000000
