13

 C    4.189879547792    0.662515756663    0.000000000000
 H    3.723259547792    1.654682756663    0.000000000000
 H    4.827028547792    0.558098756663    0.892506000000
 H    4.827028547792    0.558098756663   -0.892506000000
 C    3.091704547792   -0.388569243337    0.000000000000
 O    1.885541547792   -0.110515243337    0.000000000000
 N    3.522633547792   -1.688718243337    0.000000000000
 H    4.514810547792   -1.882619243337    0.000000000000
 C    2.564298547792   -2.787246243337    0.000000000000
 H    1.920233547792   -2.738767243337    0.890708000000
 H    1.920233547792   -2.738767243337   -0.890708000000
 H    3.117524547792   -3.735671243337    0.000000000000
 K   -5.715111778249    1.641645998484    0.000000000000
