13

 C    4.223774474641    0.654702036635    0.000000000000
 H    3.757154474641    1.646869036635    0.000000000000
 H    4.860923474641    0.550285036635    0.892506000000
 H    4.860923474641    0.550285036635   -0.892506000000
 C    3.125599474641   -0.396382963365    0.000000000000
 O    1.919436474641   -0.118328963365    0.000000000000
 N    3.556528474641   -1.696531963365    0.000000000000
 H    4.548705474641   -1.890432963365    0.000000000000
 C    2.598193474641   -2.795059963365    0.000000000000
 H    1.954128474641   -2.746580963365    0.890708000000
 H    1.954128474641   -2.746580963365   -0.890708000000
 H    3.151419474641   -3.743484963365    0.000000000000
 K   -5.778661124810    1.656295884121    0.000000000000
