13

 C    4.291564328340    0.639074596579    0.000000000000
 H    3.824944328340    1.631241596579    0.000000000000
 H    4.928713328340    0.534657596579    0.892506000000
 H    4.928713328340    0.534657596579   -0.892506000000
 C    3.193389328340   -0.412010403421    0.000000000000
 O    1.987226328340   -0.133956403421    0.000000000000
 N    3.624318328340   -1.712159403421    0.000000000000
 H    4.616495328340   -1.906060403421    0.000000000000
 C    2.665983328340   -2.810687403421    0.000000000000
 H    2.021918328340   -2.762208403421    0.890708000000
 H    2.021918328340   -2.762208403421   -0.890708000000
 H    3.219209328340   -3.759112403421    0.000000000000
 K   -5.905759817933    1.685595655393    0.000000000000
