13

 C    4.325459255189    0.631260876551    0.000000000000
 H    3.858839255189    1.623427876551    0.000000000000
 H    4.962608255189    0.526843876551    0.892506000000
 H    4.962608255189    0.526843876551   -0.892506000000
 C    3.227284255189   -0.419824123449    0.000000000000
 O    2.021121255189   -0.141770123449    0.000000000000
 N    3.658213255189   -1.719973123449    0.000000000000
 H    4.650390255189   -1.913874123449    0.000000000000
 C    2.699878255189   -2.818501123449    0.000000000000
 H    2.055813255189   -2.770022123449    0.890708000000
 H    2.055813255189   -2.770022123449   -0.890708000000
 H    3.253104255189   -3.766926123449    0.000000000000
 K   -5.969309164495    1.700245541030    0.000000000000
