13

 C    4.494933889436    0.592192276411    0.000000000000
 H    4.028313889436    1.584359276411    0.000000000000
 H    5.132082889436    0.487775276411    0.892506000000
 H    5.132082889436    0.487775276411   -0.892506000000
 C    3.396758889436   -0.458892723589    0.000000000000
 O    2.190595889436   -0.180838723589    0.000000000000
 N    3.827687889436   -1.759041723589    0.000000000000
 H    4.819864889436   -1.952942723589    0.000000000000
 C    2.869352889436   -2.857569723589    0.000000000000
 H    2.225287889436   -2.809090723589    0.890708000000
 H    2.225287889436   -2.809090723589   -0.890708000000
 H    3.422578889436   -3.805994723589    0.000000000000
 K   -6.287055897302    1.773494969212    0.000000000000
