13

 C    4.562723743135    0.576564836355    0.000000000000
 H    4.096103743135    1.568731836355    0.000000000000
 H    5.199872743135    0.472147836355    0.892506000000
 H    5.199872743135    0.472147836355   -0.892506000000
 C    3.464548743135   -0.474520163645    0.000000000000
 O    2.258385743135   -0.196466163645    0.000000000000
 N    3.895477743135   -1.774669163645    0.000000000000
 H    4.887654743135   -1.968570163645    0.000000000000
 C    2.937142743135   -2.873197163645    0.000000000000
 H    2.293077743135   -2.824718163645    0.890708000000
 H    2.293077743135   -2.824718163645   -0.890708000000
 H    3.490368743135   -3.821622163645    0.000000000000
 K   -6.414154590425    1.802794740484    0.000000000000
