13

 C    4.596618669984    0.568751116327    0.000000000000
 H    4.129998669984    1.560918116327    0.000000000000
 H    5.233767669984    0.464334116327    0.892506000000
 H    5.233767669984    0.464334116327   -0.892506000000
 C    3.498443669984   -0.482333883673    0.000000000000
 O    2.292280669984   -0.204279883673    0.000000000000
 N    3.929372669984   -1.782482883673    0.000000000000
 H    4.921549669984   -1.976383883673    0.000000000000
 C    2.971037669984   -2.881010883673    0.000000000000
 H    2.326972669984   -2.832531883673    0.890708000000
 H    2.326972669984   -2.832531883673   -0.890708000000
 H    3.524263669984   -3.829435883673    0.000000000000
 K   -6.477703936987    1.817444626121    0.000000000000
