13

 C    4.630513596833    0.560937396299    0.000000000000
 H    4.163893596833    1.553104396299    0.000000000000
 H    5.267662596833    0.456520396299    0.892506000000
 H    5.267662596833    0.456520396299   -0.892506000000
 C    3.532338596833   -0.490147603701    0.000000000000
 O    2.326175596833   -0.212093603701    0.000000000000
 N    3.963267596833   -1.790296603701    0.000000000000
 H    4.955444596833   -1.984197603701    0.000000000000
 C    3.004932596833   -2.888824603701    0.000000000000
 H    2.360867596833   -2.840345603701    0.890708000000
 H    2.360867596833   -2.840345603701   -0.890708000000
 H    3.558158596833   -3.837249603701    0.000000000000
 K   -6.541253283548    1.832094511757    0.000000000000
