13

 C    4.664408523683    0.553123676271    0.000000000000
 H    4.197788523683    1.545290676271    0.000000000000
 H    5.301557523683    0.448706676271    0.892506000000
 H    5.301557523683    0.448706676271   -0.892506000000
 C    3.566233523683   -0.497961323729    0.000000000000
 O    2.360070523683   -0.219907323729    0.000000000000
 N    3.997162523683   -1.798110323729    0.000000000000
 H    4.989339523683   -1.992011323729    0.000000000000
 C    3.038827523683   -2.896638323729    0.000000000000
 H    2.394762523683   -2.848159323729    0.890708000000
 H    2.394762523683   -2.848159323729   -0.890708000000
 H    3.592053523683   -3.845063323729    0.000000000000
 K   -6.604802630109    1.846744397393    0.000000000000
