13

 C    4.732198377381    0.537496236215    0.000000000000
 H    4.265578377381    1.529663236215    0.000000000000
 H    5.369347377381    0.433079236215    0.892506000000
 H    5.369347377381    0.433079236215   -0.892506000000
 C    3.634023377381   -0.513588763785    0.000000000000
 O    2.427860377381   -0.235534763785    0.000000000000
 N    4.064952377381   -1.813737763785    0.000000000000
 H    5.057129377381   -2.007638763785    0.000000000000
 C    3.106617377381   -2.912265763785    0.000000000000
 H    2.462552377381   -2.863786763785    0.890708000000
 H    2.462552377381   -2.863786763785   -0.890708000000
 H    3.659843377381   -3.860690763785    0.000000000000
 K   -6.731901323232    1.876044168666    0.000000000000
