13

 C    4.799988231080    0.521868796159    0.000000000000
 H    4.333368231080    1.514035796159    0.000000000000
 H    5.437137231080    0.417451796159    0.892506000000
 H    5.437137231080    0.417451796159   -0.892506000000
 C    3.701813231080   -0.529216203841    0.000000000000
 O    2.495650231080   -0.251162203841    0.000000000000
 N    4.132742231080   -1.829365203841    0.000000000000
 H    5.124919231080   -2.023266203841    0.000000000000
 C    3.174407231080   -2.927893203841    0.000000000000
 H    2.530342231080   -2.879414203841    0.890708000000
 H    2.530342231080   -2.879414203841   -0.890708000000
 H    3.727633231080   -3.876318203841    0.000000000000
 K   -6.859000016355    1.905343939939    0.000000000000
