13

 C    4.867778084778    0.506241356103    0.000000000000
 H    4.401158084778    1.498408356103    0.000000000000
 H    5.504927084778    0.401824356103    0.892506000000
 H    5.504927084778    0.401824356103   -0.892506000000
 C    3.769603084778   -0.544843643897    0.000000000000
 O    2.563440084778   -0.266789643897    0.000000000000
 N    4.200532084778   -1.844992643897    0.000000000000
 H    5.192709084778   -2.038893643897    0.000000000000
 C    3.242197084778   -2.943520643897    0.000000000000
 H    2.598132084778   -2.895041643897    0.890708000000
 H    2.598132084778   -2.895041643897   -0.890708000000
 H    3.795423084778   -3.891945643897    0.000000000000
 K   -6.986098709478    1.934643711211    0.000000000000
