14

 N    1.249594669618    1.055087183547   -0.002756864841
 C    0.164147726715    1.877846153375    0.000385006380
 H    0.355668566597    2.952903125874   -0.002119592162
 C    1.167730948936   -0.364183278179   -0.001739195957
 O    2.211474196254   -1.017425168240   -0.004220037269
 N   -0.106107139745   -0.906322909772    0.008874038173
 C   -1.163793252558   -0.104970878897    0.006380993345
 N   -2.395786369014   -0.708769907977   -0.039024829864
 H   -2.404720837335   -1.708463794488    0.130545778701
 H   -3.214364113217   -0.182341588577    0.235875294933
 C   -1.095211254124    1.336405960298    0.002897559679
 H   -1.983734969809    1.967723551542   -0.006584394348
 H    2.193534792545    1.429735395989   -0.006062761069
LI   -0.230563796163   -1.898545151560    0.011232761265
