14

 N    1.254032381444    1.090466539727   -0.002840969088
 C    0.168585438541    1.913225509555    0.000300902133
 H    0.360106278423    2.988282482054   -0.002203696409
 C    1.172168660762   -0.328803921999   -0.001823300204
 O    2.215911908080   -0.982045812060   -0.004304141516
 N   -0.101669427919   -0.870943553592    0.008789933926
 C   -1.159355540732   -0.069591522717    0.006296889098
 N   -2.391348657188   -0.673390551797   -0.039108934111
 H   -2.400283125509   -1.673084438308    0.130461674454
 H   -3.209926401391   -0.146962232397    0.235791190686
 C   -1.090773542298    1.371785316478    0.002813455432
 H   -1.979297257983    2.003102907722   -0.006668498595
 H    2.197972504371    1.465114752169   -0.006146865316
LI   -0.300800078188   -2.458499140453    0.012563890874
