14

 N    1.254772000082    1.096363099090   -0.002854986462
 C    0.169325057179    1.919122068918    0.000286884759
 H    0.360845897061    2.994179041417   -0.002217713783
 C    1.172908279400   -0.322907362636   -0.001837317578
 O    2.216651526718   -0.976149252697   -0.004318158890
 N   -0.100929809281   -0.865046994229    0.008775916552
 C   -1.158615922094   -0.063694963354    0.006282871724
 N   -2.390609038550   -0.667493992434   -0.039122951485
 H   -2.399543506871   -1.667187878945    0.130447657080
 H   -3.209186782753   -0.141065673034    0.235777173312
 C   -1.090033923660    1.377681875841    0.002799438058
 H   -1.978557639345    2.008999467085   -0.006682515969
 H    2.198712123009    1.471011311532   -0.006160882690
LI   -0.312506125192   -2.551824805268    0.012785745809
