14

 N    1.316160347008    1.585777526248   -0.004018428544
 C    0.230713404105    2.408536496076   -0.000876557323
 H    0.422234243987    3.483593468575   -0.003381155865
 C    1.234296626326    0.166507064522   -0.003000759660
 O    2.278039873644   -0.486734825539   -0.005481600972
 N   -0.039541462355   -0.375632567071    0.007612474470
 C   -1.097227575168    0.425719463804    0.005119429642
 N   -2.329220691624   -0.178079565276   -0.040286393567
 H   -2.338155159945   -1.177773451787    0.129284214998
 H   -3.147798435827    0.348348754124    0.234613731230
 C   -1.028645576734    1.867096302999    0.001635995976
 H   -1.917169292419    2.498413894243   -0.007845958051
 H    2.260100469935    1.960425738690   -0.007324324772
LI   -1.284108026536  -10.297854984950    0.031199705391
