14

 N    1.259209711908    1.131742455270   -0.002939090709
 C    0.173762769005    1.954501425098    0.000202780512
 H    0.365283608887    3.029558397597   -0.002301818030
 C    1.177345991226   -0.287528006456   -0.001921421825
 O    2.221089238544   -0.940769896517   -0.004402263137
 N   -0.096492097455   -0.829667638049    0.008691812305
 C   -1.154178210268   -0.028315607174    0.006198767477
 N   -2.386171326724   -0.632114636254   -0.039207055732
 H   -2.395105795045   -1.631808522765    0.130363552833
 H   -3.204749070927   -0.105686316854    0.235693069065
 C   -1.085596211834    1.413061232021    0.002715333811
 H   -1.974119927519    2.044378823265   -0.006766620216
 H    2.203149834835    1.506390667712   -0.006244986937
LI   -0.382742407217   -3.111778794161    0.014116875417
