14

 N    1.265126661009    1.178914930177   -0.003051229705
 C    0.179679718106    2.001673900005    0.000090641516
 H    0.371200557988    3.076730872504   -0.002413957026
 C    1.183262940327   -0.240355531549   -0.002033560821
 O    2.227006187645   -0.893597421610   -0.004514402133
 N   -0.090575148354   -0.782495163142    0.008579673309
 C   -1.148261261167    0.018856867733    0.006086628481
 N   -2.380254377623   -0.584942161347   -0.039319194728
 H   -2.389188845944   -1.584636047858    0.130251413837
 H   -3.198832121826   -0.058513841947    0.235580930069
 C   -1.079679262733    1.460233706928    0.002603194815
 H   -1.968202978418    2.091551298172   -0.006878759212
 H    2.209066783936    1.553563142619   -0.006357125933
LI   -0.476390783250   -3.858384112684    0.015891714895
