14

 N    1.265866279647    1.184811489540   -0.003065247079
 C    0.180419336744    2.007570459368    0.000076624142
 H    0.371940176626    3.082627431867   -0.002427974400
 C    1.184002558965   -0.234458972186   -0.002047578195
 O    2.227745806283   -0.887700862247   -0.004528419507
 N   -0.089835529716   -0.776598603779    0.008565655935
 C   -1.147521642529    0.024753427096    0.006072611107
 N   -2.379514758985   -0.579045601984   -0.039333212102
 H   -2.388449227306   -1.578739488495    0.130237396463
 H   -3.198092503188   -0.052617282584    0.235566912695
 C   -1.078939644095    1.466130266291    0.002589177441
 H   -1.967463359780    2.097447857535   -0.006892776586
 H    2.209806402574    1.559459701982   -0.006371143307
LI   -0.488096830254   -3.951709777500    0.016113569829
