14

 N    1.266605898284    1.190708048904   -0.003079264454
 C    0.181158955381    2.013467018732    0.000062606767
 H    0.372679795263    3.088523991231   -0.002441991775
 C    1.184742177602   -0.228562412822   -0.002061595570
 O    2.228485424920   -0.881804302883   -0.004542436882
 N   -0.089095911079   -0.770702044415    0.008551638560
 C   -1.146782023892    0.030649986460    0.006058593732
 N   -2.378775140348   -0.573149042620   -0.039347229477
 H   -2.387709608669   -1.572842929131    0.130223379088
 H   -3.197352884551   -0.046720723220    0.235552895320
 C   -1.078200025458    1.472026825655    0.002575160066
 H   -1.966723741143    2.103344416899   -0.006906793961
 H    2.210546021211    1.565356261346   -0.006385160682
LI   -0.499802877259   -4.045035442315    0.016335424764
