14

 N    1.267345516922    1.196604608267   -0.003093281828
 C    0.181898574019    2.019363578095    0.000048589393
 H    0.373419413901    3.094420550594   -0.002456009149
 C    1.185481796240   -0.222665853459   -0.002075612944
 O    2.229225043558   -0.875907743520   -0.004556454256
 N   -0.088356292441   -0.764805485052    0.008537621186
 C   -1.146042405254    0.036546545823    0.006044576358
 N   -2.378035521710   -0.567252483257   -0.039361246851
 H   -2.386969990031   -1.566946369768    0.130209361714
 H   -3.196613265913   -0.040824163857    0.235538877946
 C   -1.077460406820    1.477923385018    0.002561142692
 H   -1.965984122505    2.109240976262   -0.006920811335
 H    2.211285639849    1.571252820709   -0.006399178056
LI   -0.511508924263   -4.138361107131    0.016557279699
