14

 N    1.274741703299    1.255570201901   -0.003233455573
 C    0.189294760396    2.078329171729   -0.000091584352
 H    0.380815600278    3.153386144228   -0.002596182894
 C    1.192877982617   -0.163700259825   -0.002215786689
 O    2.236621229935   -0.816942149886   -0.004696628001
 N   -0.080960106064   -0.705839891418    0.008397447441
 C   -1.138646218877    0.095512139457    0.005904402613
 N   -2.370639335333   -0.508286889623   -0.039501420596
 H   -2.379573803654   -1.507980776134    0.130069187969
 H   -3.189217079536    0.018141429777    0.235398704201
 C   -1.070064220443    1.536888978652    0.002420968947
 H   -1.958587936128    2.168206569896   -0.007060985080
 H    2.218681826226    1.630218414343   -0.006539351801
LI   -0.628569394304   -5.071617755285    0.018775829046
