14

 N    1.276220940574    1.267363320627   -0.003261490322
 C    0.190773997671    2.090122290455   -0.000119619101
 H    0.382294837553    3.165179262954   -0.002624217643
 C    1.194357219892   -0.151907141099   -0.002243821438
 O    2.238100467210   -0.805149031160   -0.004724662750
 N   -0.079480868789   -0.694046772692    0.008369412692
 C   -1.137166981602    0.107305258183    0.005876367864
 N   -2.369160098058   -0.496493770897   -0.039529455345
 H   -2.378094566379   -1.496187657408    0.130041153220
 H   -3.187737842261    0.029934548503    0.235370669452
 C   -1.068584983168    1.548682097378    0.002392934198
 H   -1.957108698853    2.179999688622   -0.007089019829
 H    2.220161063501    1.642011533069   -0.006567386550
LI   -0.651981488312   -5.258269084916    0.019219538916
