14

 N    1.276960559212    1.273259879991   -0.003275507697
 C    0.191513616309    2.096018849819   -0.000133636476
 H    0.383034456191    3.171075822318   -0.002638235018
 C    1.195096838530   -0.146010581735   -0.002257838813
 O    2.238840085848   -0.799252471796   -0.004738680125
 N   -0.078741250151   -0.688150213328    0.008355395317
 C   -1.136427362964    0.113201817547    0.005862350489
 N   -2.368420479420   -0.490597211533   -0.039543472720
 H   -2.377354947741   -1.490291098044    0.130027135845
 H   -3.186998223623    0.035831107867    0.235356652077
 C   -1.067845364530    1.554578656742    0.002378916823
 H   -1.956369080215    2.185896247986   -0.007103037204
 H    2.220900682139    1.647908092433   -0.006581403925
LI   -0.663687535317   -5.351594749731    0.019441393850
