14

 N    1.278439796487    1.285052998717   -0.003303542445
 C    0.192992853584    2.107811968545   -0.000161671224
 H    0.384513693466    3.182868941044   -0.002666269766
 C    1.196576075805   -0.134217463009   -0.002285873561
 O    2.240319323123   -0.787459353070   -0.004766714873
 N   -0.077262012876   -0.676357094602    0.008327360569
 C   -1.134948125689    0.124994936273    0.005834315741
 N   -2.366941242145   -0.478804092807   -0.039571507468
 H   -2.375875710466   -1.478497979318    0.129999101097
 H   -3.185518986348    0.047624226593    0.235328617329
 C   -1.066366127255    1.566371775468    0.002350882075
 H   -1.954889842940    2.197689366712   -0.007131071952
 H    2.222379919414    1.659701211159   -0.006609438673
LI   -0.687099629325   -5.538246079362    0.019885103720
