14

 N    1.279179415125    1.290949558081   -0.003317559820
 C    0.193732472222    2.113708527909   -0.000175688599
 H    0.385253312104    3.188765500408   -0.002680287141
 C    1.197315694443   -0.128320903645   -0.002299890936
 O    2.241058941761   -0.781562793706   -0.004780732248
 N   -0.076522394238   -0.670460535238    0.008313343194
 C   -1.134208507051    0.130891495637    0.005820298366
 N   -2.366201623507   -0.472907533443   -0.039585524843
 H   -2.375136091828   -1.472601419954    0.129985083722
 H   -3.184779367710    0.053520785957    0.235314599954
 C   -1.065626508617    1.572268334832    0.002336864700
 H   -1.954150224302    2.203585926076   -0.007145089327
 H    2.223119538052    1.665597770523   -0.006623456048
LI   -0.698805676329   -5.631571744178    0.020106958654
