14

 N    1.280658652400    1.302742676807   -0.003345594569
 C    0.195211709497    2.125501646635   -0.000203723348
 H    0.386732549379    3.200558619134   -0.002708321890
 C    1.198794931718   -0.116527784919   -0.002327925685
 O    2.242538179036   -0.769769674980   -0.004808766997
 N   -0.075043156963   -0.658667416512    0.008285308445
 C   -1.132729269776    0.142684614363    0.005792263617
 N   -2.364722386232   -0.461114414717   -0.039613559592
 H   -2.373656854553   -1.460808301228    0.129957048973
 H   -3.183300130435    0.065313904683    0.235286565205
 C   -1.064147271342    1.584061453558    0.002308829951
 H   -1.952670987027    2.215379044802   -0.007173124076
 H    2.224598775327    1.677390889249   -0.006651490797
LI   -0.722217770337   -5.818223073809    0.020550668524
