14

 N    1.284356745588    1.332225473624   -0.003415681441
 C    0.198909802685    2.154984443452   -0.000273810220
 H    0.390430642567    3.230041415951   -0.002778408762
 C    1.202493024906   -0.087044988102   -0.002398012557
 O    2.246236272224   -0.740286878163   -0.004878853869
 N   -0.071345063775   -0.629184619695    0.008215221573
 C   -1.129031176588    0.172167411180    0.005722176745
 N   -2.361024293044   -0.431631617900   -0.039683646464
 H   -2.369958761365   -1.431325504411    0.129886962101
 H   -3.179602037247    0.094796701500    0.235216478333
 C   -1.060449178154    1.613544250375    0.002238743079
 H   -1.948972893839    2.244861841619   -0.007243210948
 H    2.228296868515    1.706873686066   -0.006721577669
LI   -0.780748005358   -6.284851397886    0.021659943198
