14

 N    1.286575601501    1.349915151714   -0.003457733565
 C    0.201128658598    2.172674121542   -0.000315862344
 H    0.392649498480    3.247731094041   -0.002820460886
 C    1.204711880819   -0.069355310012   -0.002440064681
 O    2.248455128137   -0.722597200073   -0.004920905993
 N   -0.069126207862   -0.611494941605    0.008173169449
 C   -1.126812320675    0.189857089270    0.005680124621
 N   -2.358805437131   -0.413941939810   -0.039725698588
 H   -2.367739905452   -1.413635826321    0.129844909977
 H   -3.177383181334    0.112486379590    0.235174426209
 C   -1.058230322241    1.631233928465    0.002196690955
 H   -1.946754037926    2.262551519709   -0.007285263072
 H    2.230515724428    1.724563364156   -0.006763629793
LI   -0.815866146371   -6.564828392332    0.022325508002
