14

 N    1.287315220139    1.355811711078   -0.003471750939
 C    0.201868277236    2.178570680906   -0.000329879718
 H    0.393389117118    3.253627653405   -0.002834478260
 C    1.205451499457   -0.063458750648   -0.002454082055
 O    2.249194746775   -0.716700640709   -0.004934923367
 N   -0.068386589224   -0.605598382241    0.008159152075
 C   -1.126072702037    0.195753648634    0.005666107247
 N   -2.358065818493   -0.408045380446   -0.039739715962
 H   -2.367000286814   -1.407739266957    0.129830892603
 H   -3.176643562696    0.118382938954    0.235160408835
 C   -1.057490703603    1.637130487829    0.002182673581
 H   -1.946014419288    2.268448079073   -0.007299280446
 H    2.231255343066    1.730459923520   -0.006777647167
LI   -0.827572193375   -6.658154057148    0.022547362936
