14

 N    1.288054838777    1.361708270441   -0.003485768314
 C    0.202607895874    2.184467240269   -0.000343897093
 H    0.394128735756    3.259524212768   -0.002848495635
 C    1.206191118095   -0.057562191285   -0.002468099430
 O    2.249934365413   -0.710804081346   -0.004948940742
 N   -0.067646970586   -0.599701822878    0.008145134700
 C   -1.125333083399    0.201650207997    0.005652089872
 N   -2.357326199855   -0.402148821083   -0.039753733337
 H   -2.366260668176   -1.401842707594    0.129816875228
 H   -3.175903944058    0.124279498317    0.235146391460
 C   -1.056751084965    1.643027047192    0.002168656206
 H   -1.945274800650    2.274344638436   -0.007313297821
 H    2.231994961704    1.736356482883   -0.006791664542
LI   -0.839278240379   -6.751479721963    0.022769217871
