14

 N    1.291013313327    1.385294507894   -0.003541837812
 C    0.205566370424    2.208053477722   -0.000399966591
 H    0.397087210306    3.283110450221   -0.002904565133
 C    1.209149592645   -0.033975953832   -0.002524168928
 O    2.252892839963   -0.687217843893   -0.005005010240
 N   -0.064688496036   -0.576115585425    0.008089065202
 C   -1.122374608849    0.225236445450    0.005596020374
 N   -2.354367725305   -0.378562583630   -0.039809802835
 H   -2.363302193626   -1.378256470141    0.129760805730
 H   -3.172945469508    0.147865735770    0.235090321962
 C   -1.053792610415    1.666613284645    0.002112586708
 H   -1.942316326100    2.297930875889   -0.007369367319
 H    2.234953436254    1.759942720336   -0.006847734040
LI   -0.886102428395   -7.124782381225    0.023656637610
