14

 N    1.291752931965    1.391191067258   -0.003555855186
 C    0.206305989062    2.213950037086   -0.000413983965
 H    0.397826828944    3.289007009585   -0.002918582507
 C    1.209889211283   -0.028079394468   -0.002538186302
 O    2.253632458601   -0.681321284529   -0.005019027614
 N   -0.063948877398   -0.570219026061    0.008075047828
 C   -1.121634990211    0.231133004814    0.005582003000
 N   -2.353628106667   -0.372666024266   -0.039823820209
 H   -2.362562574988   -1.372359910777    0.129746788356
 H   -3.172205850870    0.153762295134    0.235076304588
 C   -1.053052991777    1.672509844009    0.002098569334
 H   -1.941576707462    2.303827435253   -0.007383384693
 H    2.235693054892    1.765839279700   -0.006861751414
LI   -0.897808475400   -7.218108046040    0.023878492545
