14

 N    1.292492550603    1.397087626621   -0.003569872561
 C    0.207045607700    2.219846596449   -0.000428001340
 H    0.398566447582    3.294903568948   -0.002932599882
 C    1.210628829921   -0.022182835105   -0.002552203677
 O    2.254372077239   -0.675424725166   -0.005033044989
 N   -0.063209258760   -0.564322466698    0.008061030453
 C   -1.120895371573    0.237029564177    0.005567985625
 N   -2.352888488029   -0.366769464903   -0.039837837584
 H   -2.361822956350   -1.366463351414    0.129732770981
 H   -3.171466232232    0.159658854497    0.235062287213
 C   -1.052313373139    1.678406403372    0.002084551959
 H   -1.940837088824    2.309723994616   -0.007397402068
 H    2.236432673530    1.771735839063   -0.006875768789
LI   -0.909514522404   -7.311433710856    0.024100347480
