14

 N    1.293971787878    1.408880745348   -0.003597907310
 C    0.208524844975    2.231639715176   -0.000456036089
 H    0.400045684857    3.306696687675   -0.002960634631
 C    1.212108067196   -0.010389716378   -0.002580238426
 O    2.255851314514   -0.663631606439   -0.005061079738
 N   -0.061730021485   -0.552529347971    0.008032995704
 C   -1.119416134298    0.248822682904    0.005539950876
 N   -2.351409250754   -0.354976346176   -0.039865872333
 H   -2.360343719075   -1.354670232687    0.129704736232
 H   -3.169986994957    0.171451973224    0.235034252464
 C   -1.050834135864    1.690199522099    0.002056517210
 H   -1.939357851549    2.321517113343   -0.007425436817
 H    2.237911910805    1.783528957790   -0.006903803538
LI   -0.932926616412   -7.498085040487    0.024544057349
