14

 N    1.296930262429    1.432466982801   -0.003653976808
 C    0.211483319526    2.255225952629   -0.000512105587
 H    0.403004159408    3.330282925128   -0.003016704129
 C    1.215066541747    0.013196521075   -0.002636307924
 O    2.258809789065   -0.640045368986   -0.005117149236
 N   -0.058771546934   -0.528943110518    0.007976926206
 C   -1.116457659747    0.272408920357    0.005483881378
 N   -2.348450776203   -0.331390108723   -0.039921941831
 H   -2.357385244524   -1.331083995234    0.129648666734
 H   -3.167028520406    0.195038210677    0.234978182966
 C   -1.047875661313    1.713785759552    0.002000447712
 H   -1.936399376998    2.345103350796   -0.007481506315
 H    2.240870385356    1.807115195243   -0.006959873036
LI   -0.979750804429   -7.871387699748    0.025431477088
