14

 N    1.297669881066    1.438363542164   -0.003667994182
 C    0.212222938163    2.261122511992   -0.000526122961
 H    0.403743778045    3.336179484491   -0.003030721503
 C    1.215806160384    0.019093080438   -0.002650325298
 O    2.259549407702   -0.634148809623   -0.005131166610
 N   -0.058031928297   -0.523046551155    0.007962908832
 C   -1.115718041110    0.278305479720    0.005469864004
 N   -2.347711157566   -0.325493549360   -0.039935959205
 H   -2.356645625887   -1.325187435871    0.129634649360
 H   -3.166288901769    0.200934770040    0.234964165592
 C   -1.047136042676    1.719682318915    0.001986430338
 H   -1.935659758361    2.350999910159   -0.007495523689
 H    2.241610003993    1.813011754606   -0.006973890410
LI   -0.991456851433   -7.964713364564    0.025653332023
