14

 N    1.298409499704    1.444260101528   -0.003682011557
 C    0.212962556801    2.267019071356   -0.000540140336
 H    0.404483396683    3.342076043855   -0.003044738878
 C    1.216545779022    0.024989639802   -0.002664342673
 O    2.260289026340   -0.628252250259   -0.005145183985
 N   -0.057292309659   -0.517149991791    0.007948891457
 C   -1.114978422472    0.284202039084    0.005455846629
 N   -2.346971538928   -0.319596989996   -0.039949976580
 H   -2.355906007249   -1.319290876507    0.129620631985
 H   -3.165549283131    0.206831329404    0.234950148217
 C   -1.046396424038    1.725578878279    0.001972412963
 H   -1.934920139723    2.356896469523   -0.007509541064
 H    2.242349622631    1.818908313970   -0.006987907785
LI   -1.003162898437   -8.058039029379    0.025875186957
