14

 N    1.299149118342    1.450156660891   -0.003696028931
 C    0.213702175438    2.272915630719   -0.000554157710
 H    0.405223015320    3.347972603218   -0.003058756252
 C    1.217285397659    0.030886199165   -0.002678360047
 O    2.261028644978   -0.622355690896   -0.005159201359
 N   -0.056552691022   -0.511253432428    0.007934874083
 C   -1.114238803834    0.290098598447    0.005441829255
 N   -2.346231920290   -0.313700430633   -0.039963993954
 H   -2.355166388611   -1.313394317144    0.129606614611
 H   -3.164809664493    0.212727888767    0.234936130843
 C   -1.045656805401    1.731475437642    0.001958395589
 H   -1.934180521086    2.362793028886   -0.007523558438
 H    2.243089241269    1.824804873333   -0.007001925159
LI   -1.014868945441   -8.151364694195    0.026097041892
