14

 N    1.303586830167    1.485536017071   -0.003780133178
 C    0.218139887264    2.308294986899   -0.000638261957
 H    0.409660727146    3.383351959398   -0.003142860499
 C    1.221723109485    0.066265555345   -0.002762464294
 O    2.265466356803   -0.586976334716   -0.005243305606
 N   -0.052114979196   -0.475874076248    0.007850769836
 C   -1.109801092009    0.325477954627    0.005357725008
 N   -2.341794208465   -0.278321074453   -0.040048098201
 H   -2.350728676786   -1.278014960964    0.129522510364
 H   -3.160371952668    0.248107244947    0.234852026596
 C   -1.041219093575    1.766854793822    0.001874291342
 H   -1.929742809260    2.398172385066   -0.007607662685
 H    2.247526953094    1.860184229513   -0.007086029406
LI   -1.085105227466   -8.711318683087    0.027428171500
