14

 N    1.304326448805    1.491432576435   -0.003794150552
 C    0.218879505902    2.314191546263   -0.000652279331
 H    0.410400345784    3.389248518762   -0.003156877873
 C    1.222462728123    0.072162114709   -0.002776481668
 O    2.266205975441   -0.581079775352   -0.005257322980
 N   -0.051375360558   -0.469977516884    0.007836752462
 C   -1.109061473371    0.331374513991    0.005343707634
 N   -2.341054589827   -0.272424515089   -0.040062115575
 H   -2.349989058148   -1.272118401600    0.129508492990
 H   -3.159632334030    0.254003804311    0.234838009222
 C   -1.040479474937    1.772751353186    0.001860273968
 H   -1.929003190622    2.404068944430   -0.007621680059
 H    2.248266571732    1.866080788877   -0.007100046780
LI   -1.096811274470   -8.804644347903    0.027650026435
