14

 N    1.307284923356    1.515018813888   -0.003850220050
 C    0.221837980453    2.337777783716   -0.000708348829
 H    0.413358820335    3.412834756215   -0.003212947371
 C    1.225421202674    0.095748352162   -0.002832551166
 O    2.269164449992   -0.557493537899   -0.005313392478
 N   -0.048416886007   -0.446391279431    0.007780682964
 C   -1.106102998820    0.354960751444    0.005287638136
 N   -2.338096115276   -0.248838277636   -0.040118185073
 H   -2.347030583597   -1.248532164147    0.129452423492
 H   -3.156673859479    0.277590041764    0.234781939724
 C   -1.037521000386    1.796337590639    0.001804204470
 H   -1.926044716071    2.427655181883   -0.007677749557
 H    2.251225046283    1.889667026330   -0.007156116278
LI   -1.143635462487   -9.177947007165    0.028537446174
