14

 N    1.309503779269    1.532708491978   -0.003892272174
 C    0.224056836366    2.355467461806   -0.000750400953
 H    0.415577676248    3.430524434305   -0.003254999495
 C    1.227640058587    0.113438030252   -0.002874603290
 O    2.271383305905   -0.539803859809   -0.005355444602
 N   -0.046198030094   -0.428701601341    0.007738630840
 C   -1.103884142907    0.372650429534    0.005245586012
 N   -2.335877259363   -0.231148599546   -0.040160237197
 H   -2.344811727684   -1.230842486057    0.129410371368
 H   -3.154455003566    0.295279719854    0.234739887600
 C   -1.035302144473    1.814027268729    0.001762152346
 H   -1.923825860158    2.445344859973   -0.007719801681
 H    2.253443902196    1.907356704420   -0.007198168402
LI   -1.178753603499   -9.457924001611    0.029203010978
