14

 N    1.311722635182    1.550398170068   -0.003934324297
 C    0.226275692279    2.373157139896   -0.000792453076
 H    0.417796532161    3.448214112395   -0.003297051618
 C    1.229858914500    0.131127708342   -0.002916655413
 O    2.273602161818   -0.522114181719   -0.005397496725
 N   -0.043979174181   -0.411011923251    0.007696578717
 C   -1.101665286994    0.390340107624    0.005203533889
 N   -2.333658403450   -0.213458921456   -0.040202289320
 H   -2.342592871771   -1.213152807967    0.129368319245
 H   -3.152236147653    0.312969397944    0.234697835477
 C   -1.033083288560    1.831716946819    0.001720100223
 H   -1.921607004245    2.463034538063   -0.007761853804
 H    2.255662758109    1.925046382510   -0.007240220525
LI   -1.213871744511   -9.737900996057    0.029868575782
