14

 N    1.312462253819    1.556294729431   -0.003948341672
 C    0.227015310916    2.379053699259   -0.000806470451
 H    0.418536150798    3.454110671758   -0.003311068993
 C    1.230598533137    0.137024267705   -0.002930672788
 O    2.274341780455   -0.516217622356   -0.005411514100
 N   -0.043239555544   -0.405115363888    0.007682561342
 C   -1.100925668357    0.396236666987    0.005189516514
 N   -2.332918784813   -0.207562362093   -0.040216306695
 H   -2.341853253134   -1.207256248604    0.129354301870
 H   -3.151496529016    0.318865957307    0.234683818102
 C   -1.032343669923    1.837613506182    0.001706082848
 H   -1.920867385608    2.468931097426   -0.007775871179
 H    2.256402376746    1.930942941873   -0.007254237900
LI   -1.225577791516   -9.831226660873    0.030090430717
