14

 N    1.314681109732    1.573984407521   -0.003990393795
 C    0.229234166829    2.396743377349   -0.000848522574
 H    0.420755006711    3.471800349848   -0.003353121116
 C    1.232817389050    0.154713945795   -0.002972724911
 O    2.276560636368   -0.498527944266   -0.005453566223
 N   -0.041020699631   -0.387425685798    0.007640509219
 C   -1.098706812444    0.413926345077    0.005147464391
 N   -2.330699928900   -0.189872684003   -0.040258358818
 H   -2.339634397221   -1.189566570514    0.129312249747
 H   -3.149277673103    0.336555635397    0.234641765979
 C   -1.030124814010    1.855303184272    0.001664030725
 H   -1.918648529695    2.486620775516   -0.007817923302
 H    2.258621232659    1.948632619963   -0.007296290023
LI   -1.260695932528  -10.111203655319    0.030755995521
