16

 N   -2.094781073769    0.265787593528   -0.010829492785
 C   -0.862655341502   -0.364502686480   -0.009874532477
 N   -0.592514405376   -1.685388161448   -0.013338721424
 C    0.735614763087   -1.903582054198    0.002228707239
 H    1.049423046057   -2.950260786688    0.005608277930
 N    1.747964206128   -0.995601097057    0.016199977514
 C    1.435747462221    0.315219986192    0.011553573614
 N    2.443374417023    1.239718623497   -0.030268263317
 H    3.374825954410    0.909188514745    0.192189670816
 H    2.210636910996    2.199689378536    0.194541982123
 C    0.070246621347    0.691913840059    0.002782485899
 N   -0.553282689844    1.930879540689    0.012660694917
 C   -1.853208177001    1.622800152328    0.004205841759
 H   -2.663261705788    2.349380953430    0.008253979622
 H   -2.998570750939   -0.194469530306   -0.018432548718
LI   -1.226222399272   -2.458906421131   -0.022486421091
