16

 N   -2.091651572918    0.269607532798   -0.010784317824
 C   -0.859525840651   -0.360682747210   -0.009829357516
 N   -0.589384904525   -1.681568222178   -0.013293546463
 C    0.738744263938   -1.899762114928    0.002273882200
 H    1.052552546908   -2.946440847418    0.005653452891
 N    1.751093706979   -0.991781157787    0.016245152475
 C    1.438876963072    0.319039925462    0.011598748575
 N    2.446503917874    1.243538562767   -0.030223088356
 H    3.377955455261    0.913008454015    0.192234845777
 H    2.213766411847    2.203509317806    0.194587157084
 C    0.073376122198    0.695733779329    0.002827660860
 N   -0.550153188993    1.934699479959    0.012705869878
 C   -1.850078676150    1.626620091598    0.004251016720
 H   -2.660132204937    2.353200892700    0.008299154583
 H   -2.995441250088   -0.190649591036   -0.018387373757
LI   -1.286463697811   -2.532438307829   -0.023356016097
