16

 N   -2.082263070366    0.281067350609   -0.010648792941
 C   -0.850137338099   -0.349222929399   -0.009693832633
 N   -0.579996401973   -1.670108404367   -0.013158021580
 C    0.748132766490   -1.888302297117    0.002409407083
 H    1.061941049460   -2.934981029607    0.005788977774
 N    1.760482209531   -0.980321339976    0.016380677358
 C    1.448265465624    0.330499743273    0.011734273458
 N    2.455892420426    1.254998380578   -0.030087563473
 H    3.387343957813    0.924468271826    0.192370370660
 H    2.223154914399    2.214969135617    0.194722681967
 C    0.082764624750    0.707193597140    0.002963185743
 N   -0.540764686441    1.946159297770    0.012841394761
 C   -1.840690173598    1.638079909409    0.004386541603
 H   -2.650743702385    2.364660710511    0.008434679466
 H   -2.986052747536   -0.179189773225   -0.018251848874
LI   -1.467187593428   -2.753033967923   -0.025964801114
