16

 N   -2.079133569515    0.284887289879   -0.010603617980
 C   -0.847007837248   -0.345402990129   -0.009648657672
 N   -0.576866901122   -1.666288465097   -0.013112846619
 C    0.751262267341   -1.884482357847    0.002454582044
 H    1.065070550311   -2.931161090337    0.005834152735
 N    1.763611710382   -0.976501400706    0.016425852319
 C    1.451394966475    0.334319682543    0.011779448419
 N    2.459021921277    1.258818319848   -0.030042388512
 H    3.390473458664    0.928288211096    0.192415545621
 H    2.226284415250    2.218789074887    0.194767856928
 C    0.085894125601    0.711013536410    0.003008360704
 N   -0.537635185590    1.949979237040    0.012886569722
 C   -1.837560672747    1.641899848679    0.004431716564
 H   -2.647614201534    2.368480649781    0.008479854427
 H   -2.982923246685   -0.175369833955   -0.018206673913
LI   -1.527428891966   -2.826565854621   -0.026834396120
