16

 N   -2.069745066963    0.296347107690   -0.010468093097
 C   -0.837619334696   -0.333943172318   -0.009513132789
 N   -0.567478398570   -1.654828647286   -0.012977321736
 C    0.760650769893   -1.873022540036    0.002590106927
 H    1.074459052863   -2.919701272526    0.005969677618
 N    1.773000212934   -0.965041582895    0.016561377202
 C    1.460783469027    0.345779500354    0.011914973302
 N    2.468410423829    1.270278137659   -0.029906863629
 H    3.399861961216    0.939748028907    0.192551070504
 H    2.235672917802    2.230248892698    0.194903381811
 C    0.095282628153    0.722473354221    0.003143885587
 N   -0.528246683038    1.961439054851    0.013022094605
 C   -1.828172170195    1.653359666490    0.004567241447
 H   -2.638225698982    2.379940467592    0.008615379310
 H   -2.973534744133   -0.163910016144   -0.018071149030
LI   -1.708152787583   -3.047161514715   -0.029443181137
