16

 N   -2.057227063560    0.311626864771   -0.010287393254
 C   -0.825101331293   -0.318663415237   -0.009332432946
 N   -0.554960395167   -1.639548890205   -0.012796621893
 C    0.773168773296   -1.857742782955    0.002770806770
 H    1.086977056266   -2.904421515445    0.006150377461
 N    1.785518216337   -0.949761825814    0.016742077045
 C    1.473301472430    0.361059257435    0.012095673145
 N    2.480928427232    1.285557894740   -0.029726163786
 H    3.412379964619    0.955027785988    0.192731770347
 H    2.248190921205    2.245528649779    0.195084081654
 C    0.107800631556    0.737753111302    0.003324585430
 N   -0.515728679635    1.976718811932    0.013202794448
 C   -1.815654166792    1.668639423571    0.004747941290
 H   -2.625707695579    2.395220224673    0.008796079153
 H   -2.961016740730   -0.148630259063   -0.017890449187
LI   -1.949117981739   -3.341289061508   -0.032921561160
