16

 N   -2.050968061858    0.319266743311   -0.010197043332
 C   -0.818842329591   -0.311023536697   -0.009242083024
 N   -0.548701393465   -1.631909011665   -0.012706271971
 C    0.779427774998   -1.850102904415    0.002861156692
 H    1.093236057968   -2.896781636905    0.006240727383
 N    1.791777218039   -0.942121947274    0.016832426967
 C    1.479560474132    0.368699135975    0.012186023067
 N    2.487187428934    1.293197773280   -0.029635813864
 H    3.418638966321    0.962667664528    0.192822120269
 H    2.254449922907    2.253168528319    0.195174431576
 C    0.114059633258    0.745392989842    0.003414935352
 N   -0.509469677933    1.984358690472    0.013293144370
 C   -1.809395165090    1.676279302111    0.004838291212
 H   -2.619448693877    2.402860103213    0.008886429075
 H   -2.954757739028   -0.140990380523   -0.017800099265
LI   -2.069600578816   -3.488352834904   -0.034660751172
