16

 N   -2.044709060157    0.326906621852   -0.010106693410
 C   -0.812583327890   -0.303383658156   -0.009151733102
 N   -0.542442391764   -1.624269133124   -0.012615922049
 C    0.785686776699   -1.842463025874    0.002951506614
 H    1.099495059669   -2.889141758364    0.006331077305
 N    1.798036219740   -0.934482068733    0.016922776889
 C    1.485819475833    0.376339014516    0.012276372989
 N    2.493446430635    1.300837651821   -0.029545463942
 H    3.424897968022    0.970307543069    0.192912470191
 H    2.260708924608    2.260808406860    0.195264781498
 C    0.120318634959    0.753032868383    0.003505285274
 N   -0.503210676232    1.991998569013    0.013383494292
 C   -1.803136163389    1.683919180652    0.004928641134
 H   -2.613189692176    2.410499981754    0.008976778997
 H   -2.948498737327   -0.133350501982   -0.017709749343
LI   -2.190083175894   -3.635416608300   -0.036399941183
