16

 N   -2.038450058455    0.334546500392   -0.010016343488
 C   -0.806324326188   -0.295743779616   -0.009061383180
 N   -0.536183390062   -1.616629254584   -0.012525572127
 C    0.791945778401   -1.834823147334    0.003041856536
 H    1.105754061371   -2.881501879824    0.006421427227
 N    1.804295221442   -0.926842190193    0.017013126811
 C    1.492078477535    0.383978893056    0.012366722911
 N    2.499705432337    1.308477530361   -0.029455114020
 H    3.431156969724    0.977947421609    0.193002820113
 H    2.266967926310    2.268448285400    0.195355131420
 C    0.126577636661    0.760672746923    0.003595635196
 N   -0.496951674530    1.999638447553    0.013473844214
 C   -1.796877161687    1.691559059192    0.005018991056
 H   -2.606930690474    2.418139860294    0.009067128919
 H   -2.942239735625   -0.125710623442   -0.017619399421
LI   -2.310565772972   -3.782480381696   -0.038139131195
