16

 N   -2.035320557605    0.338366439662   -0.009971168527
 C   -0.803194825338   -0.291923840346   -0.009016208219
 N   -0.533053889212   -1.612809315314   -0.012480397166
 C    0.795075279251   -1.831003208064    0.003087031497
 H    1.108883562221   -2.877681940554    0.006466602188
 N    1.807424722292   -0.923022250923    0.017058301772
 C    1.495207978385    0.387798832326    0.012411897872
 N    2.502834933187    1.312297469631   -0.029409939059
 H    3.434286470574    0.981767360879    0.193047995074
 H    2.270097427160    2.272268224670    0.195400306381
 C    0.129707137511    0.764492686193    0.003640810157
 N   -0.493822173680    2.003458386823    0.013519019175
 C   -1.793747660837    1.695378998462    0.005064166017
 H   -2.603801189624    2.421959799564    0.009112303880
 H   -2.939110234775   -0.121890684172   -0.017574224460
LI   -2.370807071511   -3.856012268394   -0.039008726201
