16

 N   -2.032191056754    0.342186378933   -0.009925993566
 C   -0.800065324487   -0.288103901075   -0.008971033258
 N   -0.529924388361   -1.608989376043   -0.012435222205
 C    0.798204780102   -1.827183268793    0.003132206458
 H    1.112013063072   -2.873862001283    0.006511777149
 N    1.810554223143   -0.919202311652    0.017103476733
 C    1.498337479236    0.391618771597    0.012457072833
 N    2.505964434038    1.316117408902   -0.029364764098
 H    3.437415971425    0.985587300150    0.193093170035
 H    2.273226928011    2.276088163941    0.195445481342
 C    0.132836638362    0.768312625464    0.003685985118
 N   -0.490692672829    2.007278326094    0.013564194136
 C   -1.790618159986    1.699198937733    0.005109340978
 H   -2.600671688773    2.425779738835    0.009157478841
 H   -2.935980733924   -0.118070744901   -0.017529049499
LI   -2.431048370049   -3.929544155092   -0.039878321206
