16

 N   -2.029061555903    0.346006318203   -0.009880818605
 C   -0.796935823636   -0.284283961805   -0.008925858297
 N   -0.526794887510   -1.605169436773   -0.012390047244
 C    0.801334280953   -1.823363329523    0.003177381419
 H    1.115142563923   -2.870042062013    0.006556952110
 N    1.813683723994   -0.915382372382    0.017148651694
 C    1.501466980087    0.395438710867    0.012502247794
 N    2.509093934889    1.319937348172   -0.029319589137
 H    3.440545472276    0.989407239420    0.193138344996
 H    2.276356428862    2.279908103211    0.195490656303
 C    0.135966139213    0.772132564734    0.003731160079
 N   -0.487563171978    2.011098265364    0.013609369097
 C   -1.787488659135    1.703018877003    0.005154515939
 H   -2.597542187922    2.429599678105    0.009202653802
 H   -2.932851233073   -0.114250805631   -0.017483874538
LI   -2.491289668588   -4.003076041790   -0.040747916212
