16

 N   -2.019673053351    0.357466136014   -0.009745293722
 C   -0.787547321084   -0.272824143994   -0.008790333414
 N   -0.517406384958   -1.593709618962   -0.012254522361
 C    0.810722783505   -1.811903511712    0.003312906302
 H    1.124531066475   -2.858582244202    0.006692476993
 N    1.823072226546   -0.903922554571    0.017284176577
 C    1.510855482639    0.406898528678    0.012637772677
 N    2.518482437441    1.331397165983   -0.029184064254
 H    3.449933974828    1.000867057231    0.193273869879
 H    2.285744931414    2.291367921022    0.195626181186
 C    0.145354641765    0.783592382545    0.003866684962
 N   -0.478174669426    2.022558083175    0.013744893980
 C   -1.778100156583    1.714478694814    0.005290040822
 H   -2.588153685370    2.441059495916    0.009338178685
 H   -2.923462730521   -0.102790987820   -0.017348349655
LI   -2.672013564205   -4.223671701884   -0.043356701229
