16

 N   -2.010284550799    0.368925953824   -0.009609768839
 C   -0.778158818532   -0.261364326184   -0.008654808531
 N   -0.508017882406   -1.582249801152   -0.012118997478
 C    0.820111286057   -1.800443693902    0.003448431185
 H    1.133919569027   -2.847122426392    0.006828001876
 N    1.832460729098   -0.892462736761    0.017419701460
 C    1.520243985191    0.418358346488    0.012773297560
 N    2.527870939993    1.342856983793   -0.029048539371
 H    3.459322477380    1.012326875041    0.193409394762
 H    2.295133433966    2.302827738832    0.195761706069
 C    0.154743144317    0.795052200355    0.004002209845
 N   -0.468786166874    2.034017900985    0.013880418863
 C   -1.768711654031    1.725938512624    0.005425565705
 H   -2.578765182818    2.452519313726    0.009473703568
 H   -2.914074227969   -0.091331170010   -0.017212824772
LI   -2.852737459822   -4.444267361978   -0.045965486246
