16

 N   -2.007155049948    0.372745893095   -0.009564593878
 C   -0.775029317681   -0.257544386913   -0.008609633570
 N   -0.504888381555   -1.578429861881   -0.012073822517
 C    0.823240786908   -1.796623754631    0.003493606146
 H    1.137049069878   -2.843302487121    0.006873176837
 N    1.835590229949   -0.888642797490    0.017464876421
 C    1.523373486042    0.422178285759    0.012818472521
 N    2.531000440844    1.346676923064   -0.029003364410
 H    3.462451978231    1.016146814312    0.193454569723
 H    2.298262934817    2.306647678103    0.195806881030
 C    0.157872645168    0.798872139626    0.004047384806
 N   -0.465656666023    2.037837840256    0.013925593824
 C   -1.765582153180    1.729758451895    0.005470740666
 H   -2.575635681967    2.456339252997    0.009518878529
 H   -2.910944727118   -0.087511230739   -0.017167649811
LI   -2.912978758360   -4.517799248676   -0.046835081252
