16

 N   -1.997766547396    0.384205710905   -0.009429068995
 C   -0.765640815129   -0.246084569103   -0.008474108687
 N   -0.495499879003   -1.566970044071   -0.011938297634
 C    0.832629289460   -1.785163936821    0.003629131029
 H    1.146437572430   -2.831842669311    0.007008701720
 N    1.844978732501   -0.877182979680    0.017600401304
 C    1.532761988594    0.433638103569    0.012953997404
 N    2.540388943396    1.358136740874   -0.028867839527
 H    3.471840480783    1.027606632122    0.193590094606
 H    2.307651437369    2.318107495913    0.195942405913
 C    0.167261147720    0.810331957436    0.004182909689
 N   -0.456268163471    2.049297658066    0.014061118707
 C   -1.756193650628    1.741218269705    0.005606265549
 H   -2.566247179415    2.467799070807    0.009654403412
 H   -2.901556224566   -0.076051412929   -0.017032124928
LI   -3.093702653977   -4.738394908771   -0.049443866269
