16

 N   -1.994637046545    0.388025650176   -0.009383894034
 C   -0.762511314278   -0.242264629832   -0.008428933726
 N   -0.492370378152   -1.563150104800   -0.011893122673
 C    0.835758790311   -1.781343997550    0.003674305990
 H    1.149567073281   -2.828022730040    0.007053876681
 N    1.848108233352   -0.873363040409    0.017645576265
 C    1.535891489445    0.437458042840    0.012999172365
 N    2.543518444247    1.361956680145   -0.028822664566
 H    3.474969981634    1.031426571393    0.193635269567
 H    2.310780938220    2.321927435184    0.195987580874
 C    0.170390648571    0.814151896707    0.004228084650
 N   -0.453138662620    2.053117597337    0.014106293668
 C   -1.753064149777    1.745038208976    0.005651440510
 H   -2.563117678564    2.471619010078    0.009699578373
 H   -2.898426723715   -0.072231473658   -0.016986949967
LI   -3.153943952516   -4.811926795469   -0.050313461275
