16

 N   -1.988378044843    0.395665528716   -0.009293544112
 C   -0.756252312576   -0.234624751292   -0.008338583804
 N   -0.486111376450   -1.555510226260   -0.011802772751
 C    0.842017792013   -1.773704119010    0.003764655912
 H    1.155826074983   -2.820382851500    0.007144226603
 N    1.854367235054   -0.865723161869    0.017735926187
 C    1.542150491147    0.445097921380    0.013089522287
 N    2.549777445949    1.369596558685   -0.028732314644
 H    3.481228983336    1.039066449933    0.193725619489
 H    2.317039939922    2.329567313724    0.196077930796
 C    0.176649650273    0.821791775247    0.004318434572
 N   -0.446879660918    2.060757475877    0.014196643590
 C   -1.746805148075    1.752678087516    0.005741790432
 H   -2.556858676862    2.479258888618    0.009789928295
 H   -2.892167722013   -0.064591595118   -0.016896600045
LI   -3.274426549594   -4.958990568865   -0.052052651287
