16

 N   -1.985248543993    0.399485467986   -0.009248369151
 C   -0.753122811726   -0.230804812022   -0.008293408843
 N   -0.482981875600   -1.551690286990   -0.011757597790
 C    0.845147292863   -1.769884179740    0.003809830873
 H    1.158955575833   -2.816562912230    0.007189401564
 N    1.857496735904   -0.861903222599    0.017781101148
 C    1.545279991997    0.448917860650    0.013134697248
 N    2.552906946799    1.373416497955   -0.028687139683
 H    3.484358484186    1.042886389203    0.193770794450
 H    2.320169440772    2.333387252994    0.196123105757
 C    0.179779151123    0.825611714517    0.004363609533
 N   -0.443750160068    2.064577415147    0.014241818551
 C   -1.743675647225    1.756498026786    0.005786965393
 H   -2.553729176012    2.483078827888    0.009835103256
 H   -2.889038221163   -0.060771655848   -0.016851425084
LI   -3.334667848132   -5.032522455563   -0.052922246292
