16

 N   -1.966471538888    0.422405103608   -0.008977319385
 C   -0.734345806621   -0.207885176400   -0.008022359077
 N   -0.464204870495   -1.528770651368   -0.011486548024
 C    0.863924297968   -1.746964544118    0.004080880639
 H    1.177732580938   -2.793643276608    0.007460451330
 N    1.876273741009   -0.838983586977    0.018052150914
 C    1.564056997102    0.471837496272    0.013405747014
 N    2.571683951904    1.396336133577   -0.028416089917
 H    3.503135489291    1.065806024825    0.194041844216
 H    2.338946445877    2.356306888616    0.196394155523
 C    0.198556156228    0.848531350139    0.004634659299
 N   -0.424973154963    2.087497050769    0.014512868317
 C   -1.724898642120    1.779417662408    0.006058015159
 H   -2.534952170907    2.505998463510    0.010106153022
 H   -2.870261216058   -0.037852020226   -0.016580375318
LI   -3.696115639366   -5.473713775751   -0.058139816327
