16

 N   -1.950824034634    0.441504799959   -0.008751444581
 C   -0.718698302367   -0.188785480049   -0.007796484273
 N   -0.448557366241   -1.509670955017   -0.011260673220
 C    0.879571802222   -1.727864847767    0.004306755443
 H    1.193380085192   -2.774543580257    0.007686326134
 N    1.891921245263   -0.819883890626    0.018278025718
 C    1.579704501356    0.490937192623    0.013631621818
 N    2.587331456158    1.415435829928   -0.028190215113
 H    3.518782993545    1.084905721176    0.194267719020
 H    2.354593950131    2.375406584967    0.196620030327
 C    0.214203660482    0.867631046490    0.004860534103
 N   -0.409325650709    2.106596747120    0.014738743121
 C   -1.709251137866    1.798517358759    0.006283889963
 H   -2.519304666653    2.525098159861    0.010332027826
 H   -2.854613711804   -0.018752323875   -0.016354500514
LI   -3.997322132060   -5.841373209241   -0.062487791356
