16

 N   -1.944565032933    0.449144678499   -0.008661094659
 C   -0.712439300666   -0.181145601509   -0.007706134351
 N   -0.442298364540   -1.502031076477   -0.011170323298
 C    0.885830803923   -1.720224969227    0.004397105365
 H    1.199639086893   -2.766903701717    0.007776676056
 N    1.898180246964   -0.812244012086    0.018368375640
 C    1.585963503057    0.498577071163    0.013721971740
 N    2.593590457859    1.423075708468   -0.028099865191
 H    3.525041995246    1.092545599716    0.194358068942
 H    2.360852951832    2.383046463507    0.196710380249
 C    0.220462662183    0.875270925030    0.004950884025
 N   -0.403066649008    2.114236625660    0.014829093043
 C   -1.702992136165    1.806157237299    0.006374239885
 H   -2.513045664952    2.532738038401    0.010422377748
 H   -2.848354710103   -0.011112445335   -0.016264150592
LI   -4.117804729138   -5.988436982637   -0.064226981367
