16

 N   -1.941435532082    0.452964617770   -0.008615919698
 C   -0.709309799815   -0.177325662238   -0.007660959390
 N   -0.439168863689   -1.498211137206   -0.011125148337
 C    0.888960304774   -1.716405029956    0.004442280326
 H    1.202768587744   -2.763083762446    0.007821851017
 N    1.901309747815   -0.808424072815    0.018413550601
 C    1.589093003908    0.502397010434    0.013767146701
 N    2.596719958710    1.426895647739   -0.028054690230
 H    3.528171496097    1.096365538987    0.194403243903
 H    2.363982452683    2.386866402778    0.196755555210
 C    0.223592163034    0.879090864301    0.004996058986
 N   -0.399937148157    2.118056564931    0.014874268004
 C   -1.699862635314    1.809977176570    0.006419414846
 H   -2.509916164101    2.536557977672    0.010467552709
 H   -2.845225209252   -0.007292506064   -0.016218975631
LI   -4.178046027677   -6.061968869336   -0.065096576373
