16

 N   -1.938306031231    0.456784557040   -0.008570744737
 C   -0.706180298964   -0.173505722968   -0.007615784429
 N   -0.436039362838   -1.494391197936   -0.011079973376
 C    0.892089805625   -1.712585090686    0.004487455287
 H    1.205898088595   -2.759263823176    0.007867025978
 N    1.904439248666   -0.804604133545    0.018458725562
 C    1.592222504759    0.506216949704    0.013812321662
 N    2.599849459561    1.430715587009   -0.028009515269
 H    3.531300996948    1.100185478257    0.194448418864
 H    2.367111953534    2.390686342048    0.196800730171
 C    0.226721663885    0.882910803571    0.005041233947
 N   -0.396807647306    2.121876504201    0.014919442965
 C   -1.696733134463    1.813797115840    0.006464589807
 H   -2.506786663250    2.540377916942    0.010512727670
 H   -2.842095708401   -0.003472566794   -0.016173800670
LI   -4.238287326215   -6.135500756034   -0.065966171379
