16

 N   -1.935176530381    0.460604496310   -0.008525569776
 C   -0.703050798114   -0.169685783698   -0.007570609468
 N   -0.432909861988   -1.490571258666   -0.011034798415
 C    0.895219306475   -1.708765151416    0.004532630248
 H    1.209027589445   -2.755443883906    0.007912200939
 N    1.907568749516   -0.800784194275    0.018503900523
 C    1.595352005609    0.510036888974    0.013857496623
 N    2.602978960411    1.434535526279   -0.027964340308
 H    3.534430497798    1.104005417527    0.194493593825
 H    2.370241454384    2.394506281318    0.196845905132
 C    0.229851164735    0.886730742841    0.005086408908
 N   -0.393678146456    2.125696443471    0.014964617926
 C   -1.693603633613    1.817617055110    0.006509764768
 H   -2.503657162400    2.544197856212    0.010557902631
 H   -2.838966207551    0.000347372476   -0.016128625709
LI   -4.298528624754   -6.209032642732   -0.066835766384
