16

 N   -1.928917528679    0.468244374851   -0.008435219854
 C   -0.696791796412   -0.162045905157   -0.007480259546
 N   -0.426650860286   -1.482931380125   -0.010944448493
 C    0.901478308177   -1.701125272875    0.004622980170
 H    1.215286591147   -2.747804005365    0.008002550861
 N    1.913827751218   -0.793144315734    0.018594250445
 C    1.601611007311    0.517676767515    0.013947846545
 N    2.609237962113    1.442175404820   -0.027873990386
 H    3.540689499500    1.111645296068    0.194583943747
 H    2.376500456086    2.402146159859    0.196936255054
 C    0.236110166437    0.894370621382    0.005176758830
 N   -0.387419144754    2.133336322012    0.015054967848
 C   -1.687344631911    1.825256933651    0.006600114690
 H   -2.497398160698    2.551837734753    0.010648252553
 H   -2.832707205849    0.007987251017   -0.016038275787
LI   -4.419011221832   -6.356096416128   -0.068574956396
