16

 N   -1.922658526978    0.475884253391   -0.008344869932
 C   -0.690532794711   -0.154406026617   -0.007389909624
 N   -0.420391858585   -1.475291501585   -0.010854098571
 C    0.907737309878   -1.693485394335    0.004713330092
 H    1.221545592848   -2.740164126825    0.008092900783
 N    1.920086752919   -0.785504437194    0.018684600367
 C    1.607870009012    0.525316646055    0.014038196467
 N    2.615496963814    1.449815283360   -0.027783640464
 H    3.546948501201    1.119285174608    0.194674293669
 H    2.382759457787    2.409786038399    0.197026604976
 C    0.242369168138    0.902010499922    0.005267108752
 N   -0.381160143053    2.140976200552    0.015145317770
 C   -1.681085630210    1.832896812191    0.006690464612
 H   -2.491139158997    2.559477613293    0.010738602475
 H   -2.826448204148    0.015627129557   -0.015947925865
LI   -4.539493818910   -6.503160189524   -0.070314146407
