16

 N   -1.897622520172    0.506443767553   -0.007983470244
 C   -0.665496787905   -0.123846512455   -0.007028509936
 N   -0.395355851779   -1.444731987423   -0.010492698883
 C    0.932773316684   -1.662925880173    0.005074729780
 H    1.246581599654   -2.709604612663    0.008454300471
 N    1.945122759725   -0.754944923032    0.019046000055
 C    1.632906015818    0.555876160217    0.014399596155
 N    2.640532970620    1.480374797522   -0.027422240776
 H    3.571984508007    1.149844688770    0.195035693357
 H    2.407795464593    2.440345552561    0.197388004664
 C    0.267405174944    0.932570014084    0.005628508440
 N   -0.356124136247    2.171535714714    0.015506717458
 C   -1.656049623404    1.863456326353    0.007051864300
 H   -2.466103152191    2.590037127455    0.011100002163
 H   -2.801412197342    0.046186643719   -0.015586526177
LI   -5.021424207221   -7.091415283108   -0.077270906453
