16

 N   -1.894493019321    0.510263706823   -0.007938295283
 C   -0.662367287054   -0.120026573185   -0.006983334975
 N   -0.392226350928   -1.440912048153   -0.010447523922
 C    0.935902817535   -1.659105940903    0.005119904741
 H    1.249711100505   -2.705784673393    0.008499475432
 N    1.948252260576   -0.751124983762    0.019091175016
 C    1.636035516669    0.559696099487    0.014444771116
 N    2.643662471471    1.484194736792   -0.027377065815
 H    3.575114008858    1.153664628040    0.195080868318
 H    2.410924965444    2.444165491831    0.197433179625
 C    0.270534675795    0.936389953354    0.005673683401
 N   -0.352994635396    2.175355653984    0.015551892419
 C   -1.652920122553    1.867276265623    0.007097039261
 H   -2.462973651340    2.593857066725    0.011145177124
 H   -2.798282696491    0.050006582989   -0.015541351216
LI   -5.081665505760   -7.164947169806   -0.078140501459
