16

 N   -1.891363518470    0.514083646094   -0.007893120322
 C   -0.659237786203   -0.116206633914   -0.006938160014
 N   -0.389096850077   -1.437092108882   -0.010402348961
 C    0.939032318386   -1.655286001632    0.005165079702
 H    1.252840601356   -2.701964734122    0.008544650393
 N    1.951381761427   -0.747305044491    0.019136349977
 C    1.639165017520    0.563516038758    0.014489946077
 N    2.646791972322    1.488014676063   -0.027331890854
 H    3.578243509709    1.157484567311    0.195126043279
 H    2.414054466295    2.447985431102    0.197478354586
 C    0.273664176646    0.940209892625    0.005718858362
 N   -0.349865134545    2.179175593255    0.015597067380
 C   -1.649790621702    1.871096204894    0.007142214222
 H   -2.459844150489    2.597677005996    0.011190352085
 H   -2.795153195640    0.053826522260   -0.015496176255
LI   -5.141906804298   -7.238479056504   -0.079010096465
