16

 N   -1.885104516769    0.521723524634   -0.007802770400
 C   -0.652978784502   -0.108566755374   -0.006847810092
 N   -0.382837848376   -1.429452230342   -0.010311999039
 C    0.945291320087   -1.647646123092    0.005255429624
 H    1.259099603057   -2.694324855582    0.008635000315
 N    1.957640763128   -0.739665165951    0.019226699899
 C    1.645424019221    0.571155917298    0.014580295999
 N    2.653050974023    1.495654554603   -0.027241540932
 H    3.584502511410    1.165124445851    0.195216393201
 H    2.420313467996    2.455625309642    0.197568704508
 C    0.279923178347    0.947849771165    0.005809208284
 N   -0.343606132844    2.186815471795    0.015687417302
 C   -1.643531620001    1.878736083434    0.007232564144
 H   -2.453585148788    2.605316884536    0.011280702007
 H   -2.788894193939    0.061466400800   -0.015405826333
LI   -5.262389401376   -7.385542829900   -0.080749286476
