16

 N   -1.872586513366    0.537003281715   -0.007622070556
 C   -0.640460781099   -0.093286998293   -0.006667110248
 N   -0.370319844973   -1.414172473261   -0.010131299195
 C    0.957809323490   -1.632366366011    0.005436129468
 H    1.271617606460   -2.679045098501    0.008815700159
 N    1.970158766531   -0.724385408870    0.019407399743
 C    1.657942022624    0.586435674379    0.014760995843
 N    2.665568977426    1.510934311684   -0.027060841088
 H    3.597020514813    1.180404202932    0.195397093045
 H    2.432831471399    2.470905066723    0.197749404352
 C    0.292441181750    0.963129528246    0.005989908128
 N   -0.331088129441    2.202095228876    0.015868117146
 C   -1.631013616598    1.894015840515    0.007413263988
 H   -2.441067145385    2.620596641617    0.011461401851
 H   -2.776376190536    0.076746157881   -0.015225126489
LI   -5.503354595532   -7.679670376693   -0.084227666499
