16

 N   -1.869457012515    0.540823220985   -0.007576895595
 C   -0.637331280248   -0.089467059023   -0.006621935287
 N   -0.367190344122   -1.410352533991   -0.010086124234
 C    0.960938824341   -1.628546426741    0.005481304429
 H    1.274747107311   -2.675225159231    0.008860875120
 N    1.973288267382   -0.720565469600    0.019452574704
 C    1.661071523475    0.590255613649    0.014806170804
 N    2.668698478277    1.514754250954   -0.027015666127
 H    3.600150015664    1.184224142202    0.195442268006
 H    2.435960972250    2.474725005993    0.197794579313
 C    0.295570682601    0.966949467516    0.006035083089
 N   -0.327958628590    2.205915168146    0.015913292107
 C   -1.627884115747    1.897835779785    0.007458438949
 H   -2.437937644534    2.624416580887    0.011506576812
 H   -2.773246689685    0.080566097151   -0.015179951528
LI   -5.563595894071   -7.753202263391   -0.085097261505
