16

 N   -1.866327511664    0.544643160255   -0.007531720634
 C   -0.634201779397   -0.085647119753   -0.006576760326
 N   -0.364060843271   -1.406532594721   -0.010040949273
 C    0.964068325192   -1.624726487471    0.005526479390
 H    1.277876608162   -2.671405219961    0.008906050081
 N    1.976417768233   -0.716745530330    0.019497749665
 C    1.664201024326    0.594075552919    0.014851345765
 N    2.671827979128    1.518574190224   -0.026970491166
 H    3.603279516515    1.188044081472    0.195487442967
 H    2.439090473101    2.478544945263    0.197839754274
 C    0.298700183452    0.970769406786    0.006080258050
 N   -0.324829127739    2.209735107416    0.015958467068
 C   -1.624754614896    1.901655719055    0.007503613910
 H   -2.434808143683    2.628236520157    0.011551751773
 H   -2.770117188834    0.084386036421   -0.015134776567
LI   -5.623837192609   -7.826734150089   -0.085966856511
