16

 N   -1.863198010813    0.548463099526   -0.007486545673
 C   -0.631072278546   -0.081827180482   -0.006531585365
 N   -0.360931342420   -1.402712655450   -0.009995774312
 C    0.967197826043   -1.620906548200    0.005571654351
 H    1.281006109013   -2.667585280690    0.008951225042
 N    1.979547269084   -0.712925591059    0.019542924626
 C    1.667330525177    0.597895492190    0.014896520726
 N    2.674957479979    1.522394129495   -0.026925316205
 H    3.606409017366    1.191864020743    0.195532617928
 H    2.442219973952    2.482364884534    0.197884929235
 C    0.301829684303    0.974589346057    0.006125433011
 N   -0.321699626888    2.213555046687    0.016003642029
 C   -1.621625114045    1.905475658326    0.007548788871
 H   -2.431678642832    2.632056459428    0.011596926734
 H   -2.766987687983    0.088205975692   -0.015089601606
LI   -5.684078491148   -7.900266036787   -0.086836451516
