16

 N   -1.850680007410    0.563742856607   -0.007305845830
 C   -0.618554275143   -0.066547423401   -0.006350885522
 N   -0.348413339017   -1.387432898369   -0.009815074469
 C    0.979715829446   -1.605626791119    0.005752354194
 H    1.293524112416   -2.652305523609    0.009131924885
 N    1.992065272487   -0.697645833978    0.019723624469
 C    1.679848528580    0.613175249271    0.015077220569
 N    2.687475483382    1.537673886576   -0.026744616362
 H    3.618927020769    1.207143777824    0.195713317771
 H    2.454737977355    2.497644641615    0.198065629078
 C    0.314347687706    0.989869103138    0.006306132854
 N   -0.309181623485    2.228834803768    0.016184341872
 C   -1.609107110642    1.920755415407    0.007729488714
 H   -2.419160639429    2.647336216509    0.011777626577
 H   -2.754469684580    0.103485732773   -0.014908901763
LI   -5.925043685304   -8.194393583579   -0.090314831539
