16

 N   -1.847550506560    0.567562795877   -0.007260670869
 C   -0.615424774293   -0.062727484131   -0.006305710561
 N   -0.345283838167   -1.383612959099   -0.009769899508
 C    0.982845330296   -1.601806851849    0.005797529155
 H    1.296653613266   -2.648485584339    0.009177099846
 N    1.995194773337   -0.693825894708    0.019768799430
 C    1.682978029430    0.616995188541    0.015122395530
 N    2.690604984232    1.541493825846   -0.026699441401
 H    3.622056521619    1.210963717094    0.195758492732
 H    2.457867478205    2.501464580885    0.198110804039
 C    0.317477188556    0.993689042408    0.006351307815
 N   -0.306052122635    2.232654743038    0.016229516833
 C   -1.605977609792    1.924575354677    0.007774663675
 H   -2.416031138579    2.651156155779    0.011822801538
 H   -2.751340183730    0.107305672043   -0.014863726802
LI   -5.985284983843   -8.267925470277   -0.091184426545
