16

 N   -1.841291504858    0.575202674417   -0.007170320947
 C   -0.609165772591   -0.055087605591   -0.006215360639
 N   -0.339024836465   -1.375973080559   -0.009679549586
 C    0.989104331998   -1.594166973309    0.005887879077
 H    1.302912614968   -2.640845705799    0.009267449768
 N    2.001453775039   -0.686186016168    0.019859149352
 C    1.689237031132    0.624635067081    0.015212745452
 N    2.696863985934    1.549133704386   -0.026609091479
 H    3.628315523321    1.218603595634    0.195848842654
 H    2.464126479907    2.509104459425    0.198201153961
 C    0.323736190258    1.001328920948    0.006441657737
 N   -0.299793120933    2.240294621578    0.016319866755
 C   -1.599718608090    1.932215233217    0.007865013597
 H   -2.409772136877    2.658796034319    0.011913151460
 H   -2.745081182028    0.114945550583   -0.014773376880
LI   -6.105767580920   -8.414989243673   -0.092923616557
