16

 N   -1.825644000604    0.594302370769   -0.006944446142
 C   -0.593518268337   -0.035987909239   -0.005989485834
 N   -0.323377332211   -1.356873384207   -0.009453674781
 C    1.004751836252   -1.575067276957    0.006113753882
 H    1.318560119222   -2.621746009447    0.009493324573
 N    2.017101279293   -0.667086319816    0.020085024157
 C    1.704884535386    0.643734763433    0.015438620257
 N    2.712511490188    1.568233400738   -0.026383216674
 H    3.643963027575    1.237703291986    0.196074717459
 H    2.479773984161    2.528204155777    0.198427028766
 C    0.339383694512    1.020428617300    0.006667532542
 N   -0.284145616679    2.259394317930    0.016545741560
 C   -1.584071103836    1.951314929569    0.008090888402
 H   -2.394124632623    2.677895730671    0.012139026265
 H   -2.729433677774    0.134045246935   -0.014547502075
LI   -6.406974073615   -8.782648677163   -0.097271591585
