16

 N   -0.613639228924    0.779944597214    0.424072608280
 C    0.756976183485    0.979419275055    0.420440973904
 H    1.078760479823    2.023164205931    0.441859789597
 C   -1.213354498353   -0.473170562339    0.399542617624
 O   -2.431128529885   -0.640113268406    0.400538698398
 N   -0.288048482742   -1.509948172181    0.371886080635
 H   -0.682622190605   -2.448462482030    0.351377207237
 C    1.117681895653   -1.423909459863    0.363438029844
 O    1.806002568081   -2.447526681665    0.335330091291
 C    1.647451076718   -0.055520591129    0.392044398978
 C    3.139740970324    0.128337734333    0.387213589152
 H    3.401288599404    1.196765611201    0.409867757299
 H    3.579885283914   -0.329982485089   -0.511894662294
 H    3.590746177033   -0.370148750973    1.259150426065
 H   -1.255945452253    1.564197635388    0.443968026570
RB   -0.618816563035    0.801992551094   -0.575670900296
