16

 N   -0.612805653432    0.776394771452    0.585036082768
 C    0.757809758977    0.975869449293    0.581404448392
 H    1.079594055315    2.019614380169    0.602823264085
 C   -1.212520922861   -0.476720388101    0.560506092112
 O   -2.430294954393   -0.643663094168    0.561502172886
 N   -0.287214907250   -1.513497997943    0.532849555123
 H   -0.681788615113   -2.452012307792    0.512340681725
 C    1.118515471145   -1.427459285625    0.524401504332
 O    1.806836143573   -2.451076507427    0.496293565779
 C    1.648284652210   -0.059070416891    0.553007873466
 C    3.140574545816    0.124787908571    0.548177063640
 H    3.402122174896    1.193215785439    0.570831231787
 H    3.580718859406   -0.333532310851   -0.350931187806
 H    3.591579752525   -0.373698576735    1.420113900553
 H   -1.255111876761    1.560647809626    0.604931501058
RB   -0.620053921188    0.807261906885   -0.814604829239
