16

 N   -0.611972077940    0.772844945690    0.745999557257
 C    0.758643334469    0.972319623531    0.742367922881
 H    1.080427630807    2.016064554407    0.763786738574
 C   -1.211687347369   -0.480270213863    0.721469566601
 O   -2.429461378901   -0.647212919930    0.722465647375
 N   -0.286381331758   -1.517047823705    0.693813029612
 H   -0.680955039621   -2.455562133554    0.673304156214
 C    1.119349046637   -1.431009111387    0.685364978821
 O    1.807669719065   -2.454626333189    0.657257040268
 C    1.649118227702   -0.062620242653    0.713971347955
 C    3.141408121308    0.121238082809    0.709140538129
 H    3.402955750388    1.189665959677    0.731794706276
 H    3.581552434898   -0.337082136613   -0.189967713317
 H    3.592413328017   -0.377248402497    1.581077375042
 H   -1.254278301269    1.557097983864    0.765894975547
RB   -0.621291279340    0.812531262675   -1.053538758181
