16

 N   -0.611763684067    0.771957489249    0.786240425879
 C    0.758851728342    0.971432167090    0.782608791503
 H    1.080636024680    2.015177097966    0.804027607196
 C   -1.211478953496   -0.481157670304    0.761710435223
 O   -2.429252985028   -0.648100376371    0.762706515997
 N   -0.286172937885   -1.517935280146    0.734053898234
 H   -0.680746645748   -2.456449589995    0.713545024836
 C    1.119557440510   -1.431896567828    0.725605847443
 O    1.807878112938   -2.455513789630    0.697497908890
 C    1.649326621575   -0.063507699094    0.754212216577
 C    3.141616515181    0.120350626368    0.749381406751
 H    3.403164144261    1.188778503236    0.772035574898
 H    3.581760828771   -0.337969593054   -0.149726844695
 H    3.592621721890   -0.378135858938    1.621318243664
 H   -1.254069907396    1.556210527423    0.806135844169
RB   -0.621600618878    0.813848601623   -1.113272240417
