16

 N   -0.611555290194    0.771070032809    0.826481294501
 C    0.759060122215    0.970544710650    0.822849660125
 H    1.080844418553    2.014289641526    0.844268475818
 C   -1.211270559623   -0.482045126744    0.801951303845
 O   -2.429044591155   -0.648987832811    0.802947384619
 N   -0.285964544012   -1.518822736586    0.774294766856
 H   -0.680538251875   -2.457337046435    0.753785893458
 C    1.119765834383   -1.432784024268    0.765846716065
 O    1.808086506811   -2.456401246070    0.737738777512
 C    1.649535015448   -0.064395155534    0.794453085199
 C    3.141824909054    0.119463169928    0.789622275373
 H    3.403372538134    1.187891046796    0.812276443520
 H    3.581969222644   -0.338857049494   -0.109485976073
 H    3.592830115763   -0.379023315378    1.661559112286
 H   -1.253861513523    1.555323070983    0.846376712791
RB   -0.621909958416    0.815165940571   -1.173005722653
