16

 N   -0.610513320829    0.766632750606    1.027685637611
 C    0.760102091580    0.966107428447    1.024054003235
 H    1.081886387918    2.009852359323    1.045472818928
 C   -1.210228590258   -0.486482408947    1.003155646955
 O   -2.428002621790   -0.653425115014    1.004151727729
 N   -0.284922574647   -1.523260018789    0.975499109966
 H   -0.679496282510   -2.461774328638    0.954990236568
 C    1.120807803748   -1.437221306471    0.967051059175
 O    1.809128476176   -2.460838528273    0.938943120622
 C    1.650576984813   -0.068832437737    0.995657428309
 C    3.142866878419    0.115025887725    0.990826618483
 H    3.404414507499    1.183453764593    1.013480786630
 H    3.583011192009   -0.343294331697    0.091718367037
 H    3.593872085128   -0.383460597581    1.862763455396
 H   -1.252819544158    1.550885788780    1.047581055901
RB   -0.623456656107    0.821752635309   -1.471673133831
