16

 N   -0.610096533083    0.764857837726    1.108167374855
 C    0.760518879326    0.964332515567    1.104535740479
 H    1.082303175664    2.008077446443    1.125954556172
 C   -1.209811802512   -0.488257321827    1.083637384199
 O   -2.427585834044   -0.655200027894    1.084633464973
 N   -0.284505786901   -1.525034931669    1.055980847210
 H   -0.679079494764   -2.463549241518    1.035471973812
 C    1.121224591494   -1.438996219351    1.047532796419
 O    1.809545263922   -2.462613441153    1.019424857866
 C    1.650993772559   -0.070607350617    1.076139165553
 C    3.143283666165    0.113250974845    1.071308355727
 H    3.404831295245    1.181678851713    1.093962523874
 H    3.583427979755   -0.345069244577    0.172200104281
 H    3.594288872874   -0.385235510461    1.943245192640
 H   -1.252402756412    1.549110875900    1.128062793145
RB   -0.624075335183    0.824387313204   -1.591140098302
