16

 N   -0.609679745337    0.763082924845    1.188649112099
 C    0.760935667072    0.962557602686    1.185017477723
 H    1.082719963410    2.006302533562    1.206436293416
 C   -1.209395014766   -0.490032234708    1.164119121443
 O   -2.427169046298   -0.656974940775    1.165115202217
 N   -0.284088999155   -1.526809844550    1.136462584454
 H   -0.678662707018   -2.465324154399    1.115953711056
 C    1.121641379240   -1.440771132232    1.128014533663
 O    1.809962051668   -2.464388354034    1.099906595110
 C    1.651410560305   -0.072382263498    1.156620902797
 C    3.143700453911    0.111476061964    1.151790092971
 H    3.405248082991    1.179903938832    1.174444261118
 H    3.583844767501   -0.346844157458    0.252681841525
 H    3.594705660620   -0.387010423342    2.023726929884
 H   -1.251985968666    1.547335963019    1.208544530389
RB   -0.624694014259    0.827021991099   -1.710607062773
