16

 N   -0.609471351464    0.762195468404    1.228889980721
 C    0.761144060945    0.961670146245    1.225258346345
 H    1.082928357283    2.005415077121    1.246677162038
 C   -1.209186620893   -0.490919691149    1.204359990065
 O   -2.426960652425   -0.657862397216    1.205356070839
 N   -0.283880605282   -1.527697300991    1.176703453076
 H   -0.678454313145   -2.466211610840    1.156194579678
 C    1.121849773113   -1.441658588673    1.168255402285
 O    1.810170445541   -2.465275810475    1.140147463732
 C    1.651618954178   -0.073269719939    1.196861771419
 C    3.143908847784    0.110588605523    1.192030961593
 H    3.405456476864    1.179016482391    1.214685129740
 H    3.584053161374   -0.347731613899    0.292922710147
 H    3.594914054493   -0.387897879783    2.063967798506
 H   -1.251777574793    1.546448506578    1.248785399011
RB   -0.625003353797    0.828339330047   -1.770340545009
