16

 N   -0.609262957591    0.761308011964    1.269130849343
 C    0.761352454818    0.960782689805    1.265499214967
 H    1.083136751156    2.004527620681    1.286918030660
 C   -1.208978227020   -0.491807147589    1.244600858687
 O   -2.426752258552   -0.658749853656    1.245596939461
 N   -0.283672211409   -1.528584757431    1.216944321698
 H   -0.678245919272   -2.467099067280    1.196435448300
 C    1.122058166986   -1.442546045113    1.208496270907
 O    1.810378839414   -2.466163266915    1.180388332354
 C    1.651827348051   -0.074157176379    1.237102640041
 C    3.144117241657    0.109701149083    1.232271830215
 H    3.405664870737    1.178129025951    1.254925998362
 H    3.584261555247   -0.348619070339    0.333163578769
 H    3.595122448366   -0.388785336223    2.104208667128
 H   -1.251569180920    1.545561050138    1.289026267633
RB   -0.625312693335    0.829656668994   -1.830074027245
