16

 N   -0.608846169845    0.759533099083    1.349612586587
 C    0.761769242564    0.959007776924    1.345980952211
 H    1.083553538902    2.002752707800    1.367399767904
 C   -1.208561439274   -0.493582060470    1.325082595931
 O   -2.426335470806   -0.660524766537    1.326078676705
 N   -0.283255423663   -1.530359670312    1.297426058942
 H   -0.677829131526   -2.468873980161    1.276917185544
 C    1.122474954732   -1.444320957994    1.288978008151
 O    1.810795627160   -2.467938179796    1.260870069598
 C    1.652244135797   -0.075932089260    1.317584377285
 C    3.144534029403    0.107926236202    1.312753567459
 H    3.406081658483    1.176354113070    1.335407735606
 H    3.584678342993   -0.350393983220    0.413645316013
 H    3.595539236112   -0.390560249104    2.184690404372
 H   -1.251152393174    1.543786137257    1.369508004877
RB   -0.625931372412    0.832291346890   -1.949540991716
