16

 N   -0.608429382099    0.757758186202    1.430094323831
 C    0.762186030310    0.957232864043    1.426462689455
 H    1.083970326648    2.000977794919    1.447881505148
 C   -1.208144651528   -0.495356973351    1.405564333175
 O   -2.425918683060   -0.662299679418    1.406560413949
 N   -0.282838635917   -1.532134583193    1.377907796186
 H   -0.677412343780   -2.470648893042    1.357398922788
 C    1.122891742478   -1.446095870875    1.369459745395
 O    1.811212414906   -2.469713092677    1.341351806842
 C    1.652660923543   -0.077707002141    1.398066114529
 C    3.144950817149    0.106151323321    1.393235304703
 H    3.406498446229    1.174579200189    1.415889472850
 H    3.585095130739   -0.352168896101    0.494127053257
 H    3.595956023858   -0.392335161985    2.265172141616
 H   -1.250735605428    1.542011224376    1.449989742121
RB   -0.626550051488    0.834926024785   -2.069007956187
