16

 N   -0.608012594352    0.755983273321    1.510576061075
 C    0.762602818057    0.955457951162    1.506944426699
 H    1.084387114395    1.999202882038    1.528363242392
 C   -1.207727863781   -0.497131886232    1.486046070419
 O   -2.425501895313   -0.664074592299    1.487042151193
 N   -0.282421848170   -1.533909496074    1.458389533430
 H   -0.676995556033   -2.472423805923    1.437880660032
 C    1.123308530225   -1.447870783756    1.449941482639
 O    1.811629202653   -2.471488005558    1.421833544086
 C    1.653077711290   -0.079481915022    1.478547851773
 C    3.145367604896    0.104376410440    1.473717041947
 H    3.406915233976    1.172804287308    1.496371210094
 H    3.585511918486   -0.353943808982    0.574608790501
 H    3.596372811605   -0.394110074866    2.345653878860
 H   -1.250318817681    1.540236311495    1.530471479365
RB   -0.627168730564    0.837560702680   -2.188474920658
