16

 N   -0.607595806606    0.754208360440    1.591057798319
 C    0.763019605803    0.953683038281    1.587426163943
 H    1.084803902141    1.997427969157    1.608844979636
 C   -1.207311076035   -0.498906799113    1.566527807663
 O   -2.425085107567   -0.665849505180    1.567523888437
 N   -0.282005060424   -1.535684408955    1.538871270674
 H   -0.676578768287   -2.474198718804    1.518362397276
 C    1.123725317971   -1.449645696637    1.530423219883
 O    1.812045990399   -2.473262918439    1.502315281330
 C    1.653494499036   -0.081256827903    1.559029589017
 C    3.145784392642    0.102601497559    1.554198779191
 H    3.407332021722    1.171029374427    1.576852947338
 H    3.585928706232   -0.355718721863    0.655090527745
 H    3.596789599351   -0.395884987747    2.426135616104
 H   -1.249902029935    1.538461398614    1.610953216609
RB   -0.627787409640    0.840195380575   -2.307941885130
