16

 N   -0.606970624987    0.751545991118    1.711780404185
 C    0.763644787422    0.951020668959    1.708148769809
 H    1.085429083760    1.994765599835    1.729567585502
 C   -1.206685894416   -0.501569168435    1.687250413529
 O   -2.424459925948   -0.668511874502    1.688246494303
 N   -0.281379878805   -1.538346778277    1.659593876540
 H   -0.675953586668   -2.476861088126    1.639085003142
 C    1.124350499590   -1.452308065959    1.651145825749
 O    1.812671172018   -2.475925287761    1.623037887196
 C    1.654119680655   -0.083919197225    1.679752194883
 C    3.146409574261    0.099939128237    1.674921385057
 H    3.407957203341    1.168367005105    1.697575553204
 H    3.586553887851   -0.358381091185    0.775813133611
 H    3.597414780970   -0.398547357069    2.546858221970
 H   -1.249276848316    1.535799029292    1.731675822475
RB   -0.628715428255    0.844147397418   -2.487142331837
