16

 N   -0.606553837241    0.749771078238    1.792262141429
 C    0.764061575168    0.949245756079    1.788630507053
 H    1.085845871506    1.992990686955    1.810049322746
 C   -1.206269106670   -0.503344081315    1.767732150773
 O   -2.424043138202   -0.670286787382    1.768728231547
 N   -0.280963091059   -1.540121691157    1.740075613784
 H   -0.675536798922   -2.478636001006    1.719566740386
 C    1.124767287336   -1.454082978839    1.731627562993
 O    1.813087959764   -2.477700200641    1.703519624440
 C    1.654536468401   -0.085694110105    1.760233932127
 C    3.146826362007    0.098164215357    1.755403122301
 H    3.408373991087    1.166592092225    1.778057290448
 H    3.586970675597   -0.360156004065    0.856294870855
 H    3.597831568716   -0.400322269949    2.627339959214
 H   -1.248860060570    1.534024116412    1.812157559719
RB   -0.629334107331    0.846782075313   -2.606609296308
