16

 N   -0.606345443368    0.748883621797    1.832503010051
 C    0.764269969041    0.948358299638    1.828871375675
 H    1.086054265379    1.992103230514    1.850290191368
 C   -1.206060712797   -0.504231537756    1.807973019395
 O   -2.423834744329   -0.671174243823    1.808969100169
 N   -0.280754697186   -1.541009147598    1.780316482406
 H   -0.675328405049   -2.479523457447    1.759807609008
 C    1.124975681209   -1.454970435280    1.771868431615
 O    1.813296353637   -2.478587657082    1.743760493062
 C    1.654744862274   -0.086581566546    1.800474800749
 C    3.147034755880    0.097276758916    1.795643990923
 H    3.408582384960    1.165704635784    1.818298159070
 H    3.587179069470   -0.361043460506    0.896535739477
 H    3.598039962589   -0.401209726390    2.667580827836
 H   -1.248651666697    1.533136659971    1.852398428341
RB   -0.629643446869    0.848099414261   -2.666342778544
