16

 N   -0.605928655622    0.747108708916    1.912984747295
 C    0.764686756787    0.946583386757    1.909353112919
 H    1.086471053125    1.990328317633    1.930771928612
 C   -1.205643925051   -0.506006450637    1.888454756639
 O   -2.423417956583   -0.672949156704    1.889450837413
 N   -0.280337909440   -1.542784060479    1.860798219650
 H   -0.674911617303   -2.481298370328    1.840289346252
 C    1.125392468955   -1.456745348161    1.852350168859
 O    1.813713141383   -2.480362569963    1.824242230306
 C    1.655161650020   -0.088356479427    1.880956537993
 C    3.147451543626    0.095501846035    1.876125728167
 H    3.408999172706    1.163929722903    1.898779896314
 H    3.587595857216   -0.362818373387    0.977017476721
 H    3.598456750335   -0.402984639271    2.748062565080
 H   -1.248234878951    1.531361747090    1.932880165585
RB   -0.630262125945    0.850734092156   -2.785809743015
