16

 N   -0.605720261749    0.746221252476    1.953225615917
 C    0.764895150660    0.945695930317    1.949593981541
 H    1.086679446998    1.989440861193    1.971012797234
 C   -1.205435531178   -0.506893907077    1.928695625261
 O   -2.423209562710   -0.673836613144    1.929691706035
 N   -0.280129515567   -1.543671516919    1.901039088272
 H   -0.674703223430   -2.482185826768    1.880530214874
 C    1.125600862828   -1.457632804601    1.892591037481
 O    1.813921535256   -2.481250026403    1.864483098928
 C    1.655370043893   -0.089243935867    1.921197406615
 C    3.147659937499    0.094614389595    1.916366596789
 H    3.409207566579    1.163042266463    1.939020764936
 H    3.587804251089   -0.363705829827    1.017258345343
 H    3.598665144208   -0.403872095711    2.788303433702
 H   -1.248026485078    1.530474290650    1.973121034207
RB   -0.630571465483    0.852051431104   -2.845543225250
