16

 N   -0.605303474003    0.744446339595    2.033707353162
 C    0.765311938406    0.943921017436    2.030075718786
 H    1.087096234744    1.987665948312    2.051494534479
 C   -1.205018743432   -0.508668819958    2.009177362506
 O   -2.422792774964   -0.675611526025    2.010173443280
 N   -0.279712727821   -1.545446429800    1.981520825517
 H   -0.674286435684   -2.483960739649    1.961011952119
 C    1.126017650574   -1.459407717482    1.973072774726
 O    1.814338323002   -2.483024939284    1.944964836173
 C    1.655786831639   -0.091018848748    2.001679143860
 C    3.148076725245    0.092839476714    1.996848334034
 H    3.409624354325    1.161267353582    2.019502502181
 H    3.588221038835   -0.365480742708    1.097740082588
 H    3.599081931954   -0.405647008592    2.868785170947
 H   -1.247609697332    1.528699377769    2.053602771452
RB   -0.631190144559    0.854686108999   -2.965010189722
