16

 N   -0.605095080130    0.743558883154    2.073948221784
 C    0.765520332279    0.943033560995    2.070316587408
 H    1.087304628617    1.986778491871    2.091735403101
 C   -1.204810349559   -0.509556276399    2.049418231128
 O   -2.422584381091   -0.676498982466    2.050414311902
 N   -0.279504333948   -1.546333886241    2.021761694139
 H   -0.674078041811   -2.484848196090    2.001252820741
 C    1.126226044447   -1.460295173923    2.013313643348
 O    1.814546716875   -2.483912395725    1.985205704795
 C    1.655995225512   -0.091906305189    2.041920012482
 C    3.148285119118    0.091952020273    2.037089202656
 H    3.409832748198    1.160379897141    2.059743370803
 H    3.588429432708   -0.366368199149    1.137980951210
 H    3.599290325827   -0.406534465033    2.909026039569
 H   -1.247401303459    1.527811921328    2.093843640074
RB   -0.631499484097    0.856003447947   -3.024743671957
