16

 N   -0.604261504638    0.740009057392    2.234911696272
 C    0.766353907771    0.939483735233    2.231280061896
 H    1.088138204109    1.983228666109    2.252698877589
 C   -1.203976774067   -0.513106102161    2.210381705616
 O   -2.421750805599   -0.680048808228    2.211377786390
 N   -0.278670758456   -1.549883712003    2.182725168627
 H   -0.673244466319   -2.488398021852    2.162216295229
 C    1.127059619939   -1.463844999685    2.174277117836
 O    1.815380292367   -2.487462221487    2.146169179283
 C    1.656828801004   -0.095456130951    2.202883486970
 C    3.149118694610    0.088402194511    2.198052677144
 H    3.410666323690    1.156830071379    2.220706845291
 H    3.589263008200   -0.369918024911    1.298944425698
 H    3.600123901319   -0.410084290795    3.069989514057
 H   -1.246567727967    1.524262095566    2.254807114562
RB   -0.632736842250    0.861272803737   -3.263677600900
