16

 N   -0.603636323019    0.737346688071    2.355634302138
 C    0.766979089390    0.936821365912    2.352002667762
 H    1.088763385728    1.980566296788    2.373421483455
 C   -1.203351592448   -0.515768471482    2.331104311482
 O   -2.421125623980   -0.682711177549    2.332100392256
 N   -0.278045576837   -1.552546081324    2.303447774493
 H   -0.672619284700   -2.491060391173    2.282938901095
 C    1.127684801558   -1.466507369006    2.294999723702
 O    1.816005473986   -2.490124590808    2.266891785149
 C    1.657453982623   -0.098118500272    2.323606092836
 C    3.149743876229    0.085739825190    2.318775283010
 H    3.411291505309    1.154167702058    2.341429451157
 H    3.589888189819   -0.372580394232    1.419667031564
 H    3.600749082938   -0.412746660116    3.190712119923
 H   -1.245942546348    1.521599726245    2.375529720428
RB   -0.633664860864    0.865224820580   -3.442878047607
