16

 N   -0.602802747527    0.733796862309    2.516597776626
 C    0.767812664882    0.933271540150    2.512966142250
 H    1.089596961220    1.977016471026    2.534384957943
 C   -1.202518016956   -0.519318297244    2.492067785970
 O   -2.420292048488   -0.686261003311    2.493063866744
 N   -0.277212001345   -1.556095907086    2.464411248981
 H   -0.671785709208   -2.494610216935    2.443902375583
 C    1.128518377050   -1.470057194768    2.455963198190
 O    1.816839049478   -2.493674416570    2.427855259637
 C    1.658287558115   -0.101668326034    2.484569567324
 C    3.150577451721    0.082189999428    2.479738757498
 H    3.412125080801    1.150617876296    2.502392925645
 H    3.590721765311   -0.376130219994    1.580630506052
 H    3.601582658430   -0.416296485878    3.351675594411
 H   -1.245108970856    1.518049900483    2.536493194916
RB   -0.634902219017    0.870494176370   -3.681811976549
