16

 N   -0.602385959781    0.732021949428    2.597079513870
 C    0.768229452628    0.931496627269    2.593447879494
 H    1.090013748966    1.975241558145    2.614866695187
 C   -1.202101229210   -0.521093210125    2.572549523214
 O   -2.419875260742   -0.688035916192    2.573545603988
 N   -0.276795213599   -1.557870819967    2.544892986225
 H   -0.671368921462   -2.496385129816    2.524384112827
 C    1.128935164796   -1.471832107649    2.536444935434
 O    1.817255837224   -2.495449329451    2.508336996881
 C    1.658704345861   -0.103443238915    2.565051304568
 C    3.150994239467    0.080415086547    2.560220494742
 H    3.412541868547    1.148842963415    2.582874662889
 H    3.591138553057   -0.377905132875    1.661112243296
 H    3.601999446176   -0.418071398759    3.432157331655
 H   -1.244692183110    1.516274987602    2.616974932160
RB   -0.635520898093    0.873128854266   -3.801278941021
