16

 N   -0.602177565908    0.731134492988    2.637320382492
 C    0.768437846501    0.930609170829    2.633688748116
 H    1.090222142839    1.974354101705    2.655107563809
 C   -1.201892835337   -0.521980666565    2.612790391836
 O   -2.419666866869   -0.688923372632    2.613786472610
 N   -0.276586819726   -1.558758276407    2.585133854847
 H   -0.671160527589   -2.497272586256    2.564624981449
 C    1.129143558669   -1.472719564089    2.576685804056
 O    1.817464231097   -2.496336785891    2.548577865503
 C    1.658912739734   -0.104330695355    2.605292173190
 C    3.151202633340    0.079527630107    2.600461363364
 H    3.412750262420    1.147955506975    2.623115531511
 H    3.591346946930   -0.378792589315    1.701353111918
 H    3.602207840049   -0.418958855199    3.472398200277
 H   -1.244483789237    1.515387531162    2.657215800782
RB   -0.635830237631    0.874446193213   -3.861012423256
