16

 N   -0.601760778162    0.729359580107    2.717802119736
 C    0.768854634247    0.928834257948    2.714170485360
 H    1.090638930585    1.972579188824    2.735589301053
 C   -1.201476047591   -0.523755579446    2.693272129080
 O   -2.419250079123   -0.690698285513    2.694268209854
 N   -0.276170031980   -1.560533189288    2.665615592091
 H   -0.670743739843   -2.499047499137    2.645106718693
 C    1.129560346415   -1.474494476970    2.657167541300
 O    1.817881018843   -2.498111698772    2.629059602747
 C    1.659329527480   -0.106105608236    2.685773910434
 C    3.151619421086    0.077752717226    2.680943100608
 H    3.413167050166    1.146180594094    2.703597268755
 H    3.591763734676   -0.380567502196    1.781834849162
 H    3.602624627795   -0.420733768080    3.552879937521
 H   -1.244067001491    1.513612618281    2.737697538026
RB   -0.636448916707    0.877080871108   -3.980479387728
