16

 N   -0.600927202670    0.725809754345    2.878765594224
 C    0.769688209739    0.925284432186    2.875133959848
 H    1.091472506077    1.969029363062    2.896552775541
 C   -1.200642472099   -0.527305405208    2.854235603568
 O   -2.418416503631   -0.694248111275    2.855231684342
 N   -0.275336456488   -1.564083015050    2.826579066579
 H   -0.669910164351   -2.502597324899    2.806070193181
 C    1.130393921907   -1.478044302732    2.818131015788
 O    1.818714594335   -2.501661524534    2.790023077235
 C    1.660163102972   -0.109655433998    2.846737384922
 C    3.152452996578    0.074202891464    2.841906575096
 H    3.414000625658    1.142630768332    2.864560743243
 H    3.592597310168   -0.384117327958    1.942798323650
 H    3.603458203287   -0.424283593842    3.713843412009
 H   -1.243233425999    1.510062792519    2.898661012514
RB   -0.637686274859    0.882350226899   -4.219413316670
