16

 N   -0.600718808797    0.724922297904    2.919006462846
 C    0.769896603612    0.924396975745    2.915374828470
 H    1.091680899950    1.968141906621    2.936793644163
 C   -1.200434078226   -0.528192861649    2.894476472190
 O   -2.418208109758   -0.695135567716    2.895472552964
 N   -0.275128062615   -1.564970471491    2.866819935201
 H   -0.669701770478   -2.503484781340    2.846311061803
 C    1.130602315780   -1.478931759173    2.858371884410
 O    1.818922988208   -2.502548980975    2.830263945857
 C    1.660371496845   -0.110542890439    2.886978253544
 C    3.152661390451    0.073315435023    2.882147443718
 H    3.414209019531    1.141743311891    2.904801611865
 H    3.592805704041   -0.385004784399    1.983039192272
 H    3.603666597160   -0.425171050283    3.754084280631
 H   -1.243025032126    1.509175336078    2.938901881136
RB   -0.637995614398    0.883667565847   -4.279146798906
