16

 N   -0.600093627178    0.722259928583    3.039729068712
 C    0.770521785231    0.921734606424    3.036097434336
 H    1.092306081569    1.965479537300    3.057516250029
 C   -1.199808896607   -0.530855230970    3.015199078056
 O   -2.417582928139   -0.697797937037    3.016195158830
 N   -0.274502880996   -1.567632840812    2.987542541067
 H   -0.669076588859   -2.506147150661    2.967033667669
 C    1.131227497399   -1.481594128494    2.979094490276
 O    1.819548169827   -2.505211350296    2.950986551723
 C    1.660996678464   -0.113205259760    3.007700859410
 C    3.153286572070    0.070653065702    3.002870049584
 H    3.414834201150    1.139080942570    3.025524217731
 H    3.593430885660   -0.387667153720    2.103761798138
 H    3.604291778779   -0.427833419604    3.874806886497
 H   -1.242399850507    1.506512966757    3.059624487002
RB   -0.638923633012    0.887619582689   -4.458347245613
