16

 N   -0.599676839432    0.720485015702    3.120210805956
 C    0.770938572977    0.919959693543    3.116579171580
 H    1.092722869315    1.963704624419    3.137997987273
 C   -1.199392108861   -0.532630143851    3.095680815300
 O   -2.417166140393   -0.699572849918    3.096676896074
 N   -0.274086093250   -1.569407753693    3.068024278311
 H   -0.668659801113   -2.507922063542    3.047515404913
 C    1.131644285145   -1.483369041375    3.059576227520
 O    1.819964957573   -2.506986263177    3.031468288967
 C    1.661413466210   -0.114980172641    3.088182596654
 C    3.153703359816    0.068878152821    3.083351786828
 H    3.415250988896    1.137306029689    3.106005954975
 H    3.593847673406   -0.389442066601    2.184243535382
 H    3.604708566525   -0.429608332485    3.955288623741
 H   -1.241983062761    1.504738053876    3.140106224246
RB   -0.639542312088    0.890254260585   -4.577814210084
