16

 N   -0.599260051685    0.718710102821    3.200692543200
 C    0.771355360724    0.918184780662    3.197060908824
 H    1.093139657062    1.961929711538    3.218479724517
 C   -1.198975321114   -0.534405056732    3.176162552544
 O   -2.416749352646   -0.701347762799    3.177158633318
 N   -0.273669305503   -1.571182666574    3.148506015555
 H   -0.668243013366   -2.509696976423    3.127997142157
 C    1.132061072892   -1.485143954256    3.140057964764
 O    1.820381745320   -2.508761176058    3.111950026211
 C    1.661830253957   -0.116755085522    3.168664333898
 C    3.154120147563    0.067103239940    3.163833524072
 H    3.415667776643    1.135531116808    3.186487692219
 H    3.594264461153   -0.391216979482    2.264725272626
 H    3.605125354272   -0.431383245366    4.035770360985
 H   -1.241566275014    1.502963140995    3.220587961490
RB   -0.640160991164    0.892888938480   -4.697281174555
