16

 N   -0.599051657812    0.717822646381    3.240933411822
 C    0.771563754597    0.917297324222    3.237301777446
 H    1.093348050935    1.961042255098    3.258720593139
 C   -1.198766927241   -0.535292513172    3.216403421166
 O   -2.416540958773   -0.702235219239    3.217399501940
 N   -0.273460911630   -1.572070123014    3.188746884177
 H   -0.668034619493   -2.510584432863    3.168238010779
 C    1.132269466765   -1.486031410696    3.180298833386
 O    1.820590139193   -2.509648632498    3.152190894833
 C    1.662038647830   -0.117642541962    3.208905202520
 C    3.154328541436    0.066215783500    3.204074392694
 H    3.415876170516    1.134643660368    3.226728560841
 H    3.594472855026   -0.392104435922    2.304966141248
 H    3.605333748145   -0.432270701806    4.076011229607
 H   -1.241357881141    1.502075684555    3.260828830112
RB   -0.640470330702    0.894206277427   -4.757014656791
