16

 N   -0.598843263939    0.716935189940    3.281174280445
 C    0.771772148470    0.916409867781    3.277542646069
 H    1.093556444808    1.960154798657    3.298961461762
 C   -1.198558533368   -0.536179969613    3.256644289789
 O   -2.416332564900   -0.703122675680    3.257640370563
 N   -0.273252517757   -1.572957579455    3.228987752800
 H   -0.667826225620   -2.511471889304    3.208478879402
 C    1.132477860638   -1.486918867137    3.220539702009
 O    1.820798533066   -2.510536088939    3.192431763456
 C    1.662247041703   -0.118529998403    3.249146071143
 C    3.154536935309    0.065328327059    3.244315261317
 H    3.416084564389    1.133756203927    3.266969429464
 H    3.594681248899   -0.392991892363    2.345207009871
 H    3.605542142018   -0.433158158247    4.116252098230
 H   -1.241149487268    1.501188228114    3.301069698735
RB   -0.640779670240    0.895523616375   -4.816748139026
