16

 N   -0.598426476193    0.715160277059    3.361656017689
 C    0.772188936216    0.914634954900    3.358024383313
 H    1.093973232554    1.958379885776    3.379443199006
 C   -1.198141745622   -0.537954882494    3.337126027033
 O   -2.415915777154   -0.704897588561    3.338122107807
 N   -0.272835730011   -1.574732492336    3.309469490044
 H   -0.667409437874   -2.513246802185    3.288960616646
 C    1.132894648384   -1.488693780018    3.301021439253
 O    1.821215320812   -2.512311001820    3.272913500700
 C    1.662663829449   -0.120304911284    3.329627808387
 C    3.154953723055    0.063553414178    3.324796998561
 H    3.416501352135    1.131981291046    3.347451166708
 H    3.595098036645   -0.394766805244    2.425688747115
 H    3.605958929764   -0.434933071128    4.196733835474
 H   -1.240732699522    1.499413315233    3.381551435979
RB   -0.641398349317    0.898158294270   -4.936215103498
