16

 N   -0.597592900701    0.711610451297    3.522619492177
 C    0.773022511708    0.911085129138    3.518987857801
 H    1.094806808046    1.954830060014    3.540406673494
 C   -1.197308170130   -0.541504708256    3.498089501521
 O   -2.415082201662   -0.708447414323    3.499085582295
 N   -0.272002154519   -1.578282318098    3.470432964532
 H   -0.666575862382   -2.516796627947    3.449924091134
 C    1.133728223876   -1.492243605780    3.461984913741
 O    1.822048896304   -2.515860827582    3.433876975188
 C    1.663497404941   -0.123854737046    3.490591282875
 C    3.155787298547    0.060003588416    3.485760473049
 H    3.417334927627    1.128431465284    3.508414641196
 H    3.595931612137   -0.398316631006    2.586652221603
 H    3.606792505256   -0.438482896890    4.357697309962
 H   -1.239899124030    1.495863489471    3.542514910467
RB   -0.642635707469    0.903427650061   -5.175149032440
