16

 N   -0.597176112955    0.709835538416    3.603101229421
 C    0.773439299454    0.909310216257    3.599469595045
 H    1.095223595792    1.953055147133    3.620888410738
 C   -1.196891382384   -0.543279621137    3.578571238765
 O   -2.414665413916   -0.710222327204    3.579567319539
 N   -0.271585366773   -1.580057230979    3.550914701776
 H   -0.666159074636   -2.518571540828    3.530405828378
 C    1.134145011622   -1.494018518661    3.542466650985
 O    1.822465684050   -2.517635740463    3.514358712432
 C    1.663914192687   -0.125629649927    3.571073020119
 C    3.156204086293    0.058228675535    3.566242210293
 H    3.417751715373    1.126656552403    3.588896378440
 H    3.596348399883   -0.400091543887    2.667133958847
 H    3.607209293002   -0.440257809771    4.438179047206
 H   -1.239482336284    1.494088576590    3.622996647711
RB   -0.643254386545    0.906062327956   -5.294615996911
