16

 N   -0.596967719082    0.708948081976    3.643342098043
 C    0.773647693327    0.908422759817    3.639710463667
 H    1.095431989665    1.952167690693    3.661129279360
 C   -1.196682988511   -0.544167077577    3.618812107387
 O   -2.414457020043   -0.711109783644    3.619808188161
 N   -0.271376972900   -1.580944687419    3.591155570398
 H   -0.665950680763   -2.519458997268    3.570646697000
 C    1.134353405495   -1.494905975101    3.582707519607
 O    1.822674077923   -2.518523196903    3.554599581054
 C    1.664122586560   -0.126517106367    3.611313888741
 C    3.156412480166    0.057341219095    3.606483078915
 H    3.417960109246    1.125769095963    3.629137247062
 H    3.596556793756   -0.400979000327    2.707374827469
 H    3.607417686875   -0.441145266211    4.478419915828
 H   -1.239273942411    1.493201120150    3.663237516333
RB   -0.643563726083    0.907379666904   -5.354349479147
