16

 N   -0.596759325209    0.708060625535    3.683582966665
 C    0.773856087200    0.907535303376    3.679951332289
 H    1.095640383538    1.951280234252    3.701370147982
 C   -1.196474594638   -0.545054534018    3.659052976009
 O   -2.414248626170   -0.711997240085    3.660049056783
 N   -0.271168579027   -1.581832143860    3.631396439020
 H   -0.665742286890   -2.520346453709    3.610887565622
 C    1.134561799368   -1.495793431542    3.622948388229
 O    1.822882471796   -2.519410653344    3.594840449676
 C    1.664330980433   -0.127404562808    3.651554757363
 C    3.156620874039    0.056453762654    3.646723947537
 H    3.418168503119    1.124881639522    3.669378115684
 H    3.596765187629   -0.401866456768    2.747615696091
 H    3.607626080748   -0.442032722652    4.518660784450
 H   -1.239065548538    1.492313663709    3.703478384955
RB   -0.643873065621    0.908697005851   -5.414082961383
