13

 N   -0.979939479516    0.851116996670   -0.187107914773
 C    0.193800103567    1.578489188180   -0.187420393943
 H    0.076083243504    2.663807647224   -0.187536241502
 C   -1.025715452596   -0.542094795197   -0.187492969342
 O   -2.077303621152   -1.176198109038   -0.187149602238
 N    0.234725088545   -1.125564851329   -0.187076066020
 H    0.244540885668   -2.143849963195   -0.187103370115
 C    1.495979377778   -0.489509364366   -0.187058971184
 O    2.529672305846   -1.158773198782   -0.187804636848
 C    1.414500586018    0.971037697024   -0.187558868631
 H    2.337900724320    1.548097955890   -0.187899545408
 H   -1.883676655464    1.310771118030   -0.187309566373
NA   -0.979739845727    0.851267413470    0.912892056827
