13

 N   -0.979942569722    0.851114668312   -0.204135222997
 C    0.193797013361    1.578486859822   -0.204447702167
 H    0.076080153298    2.663805318866   -0.204563549726
 C   -1.025718542802   -0.542097123555   -0.204520277566
 O   -2.077306711358   -1.176200437396   -0.204176910462
 N    0.234721998339   -1.125567179687   -0.204103374244
 H    0.244537795462   -2.143852291553   -0.204130678339
 C    1.495976287572   -0.489511692724   -0.204086279408
 O    2.529669215640   -1.158775527140   -0.204831945072
 C    1.414497495812    0.971035368666   -0.204586176855
 H    2.337897634114    1.548095627532   -0.204926853632
 H   -1.883679745670    1.310768789672   -0.204336874597
NA   -0.979724787406    0.851278759367    0.995864746022
