13

 N   -0.979945659927    0.851112339955   -0.221162531220
 C    0.193793923156    1.578484531465   -0.221475010390
 H    0.076077063093    2.663802990509   -0.221590857949
 C   -1.025721633007   -0.542099451912   -0.221547585789
 O   -2.077309801563   -1.176202765753   -0.221204218685
 N    0.234718908134   -1.125569508044   -0.221130682467
 H    0.244534705257   -2.143854619910   -0.221157986562
 C    1.495973197367   -0.489514021081   -0.221113587631
 O    2.529666125435   -1.158777855497   -0.221859253295
 C    1.414494405607    0.971033040309   -0.221613485078
 H    2.337894543909    1.548093299175   -0.221954161855
 H   -1.883682835875    1.310766461315   -0.221364182820
NA   -0.979709729086    0.851290105264    1.078837435217
