13

 N   -0.979948750133    0.851110011597   -0.238189839443
 C    0.193790832950    1.578482203107   -0.238502318613
 H    0.076073972887    2.663800662151   -0.238618166172
 C   -1.025724723213   -0.542101780270   -0.238574894012
 O   -2.077312891769   -1.176205094111   -0.238231526908
 N    0.234715817928   -1.125571836402   -0.238157990690
 H    0.244531615051   -2.143856948268   -0.238185294785
 C    1.495970107161   -0.489516349439   -0.238140895854
 O    2.529663035229   -1.158780183855   -0.238886561518
 C    1.414491315401    0.971030711951   -0.238640793301
 H    2.337891453703    1.548090970817   -0.238981470078
 H   -1.883685926081    1.310764132957   -0.238391491043
NA   -0.979694670765    0.851301451161    1.161810124412
