13

 N   -0.979958020750    0.851103026525   -0.289271764113
 C    0.193781562333    1.578475218035   -0.289584243283
 H    0.076064702270    2.663793677079   -0.289700090842
 C   -1.025733993830   -0.542108765342   -0.289656818682
 O   -2.077322162386   -1.176212079183   -0.289313451578
 N    0.234706547311   -1.125578821474   -0.289239915360
 H    0.244522344434   -2.143863933340   -0.289267219455
 C    1.495960836544   -0.489523334511   -0.289222820524
 O    2.529653764612   -1.158787168927   -0.289968486188
 C    1.414482044784    0.971023726879   -0.289722717971
 H    2.337882183086    1.548083985745   -0.290063394748
 H   -1.883695196698    1.310757147885   -0.289473415713
NA   -0.979649495803    0.851335488853    1.410728191997
