13

 N   -0.979961110955    0.851100698167   -0.306299072336
 C    0.193778472128    1.578472889677   -0.306611551506
 H    0.076061612065    2.663791348721   -0.306727399065
 C   -1.025737084035   -0.542111093700   -0.306684126905
 O   -2.077325252591   -1.176214407541   -0.306340759801
 N    0.234703457106   -1.125581149832   -0.306267223583
 H    0.244519254229   -2.143866261698   -0.306294527678
 C    1.495957746339   -0.489525662869   -0.306250128747
 O    2.529650674407   -1.158789497285   -0.306995794411
 C    1.414478954579    0.971021398521   -0.306750026194
 H    2.337879092881    1.548081657387   -0.307090702971
 H   -1.883698286903    1.310754819527   -0.306500723936
NA   -0.979634437482    0.851346834750    1.493700881192
