13

 N   -0.979964201161    0.851098369810   -0.323326380559
 C    0.193775381922    1.578470561320   -0.323638859729
 H    0.076058521859    2.663789020364   -0.323754707288
 C   -1.025740174241   -0.542113422057   -0.323711435128
 O   -2.077328342797   -1.176216735898   -0.323368068024
 N    0.234700366900   -1.125583478189   -0.323294531806
 H    0.244516164023   -2.143868590055   -0.323321835901
 C    1.495954656133   -0.489527991226   -0.323277436970
 O    2.529647584201   -1.158791825642   -0.324023102634
 C    1.414475864373    0.971019070164   -0.323777334417
 H    2.337876002675    1.548079329030   -0.324118011194
 H   -1.883701377109    1.310752491170   -0.323528032159
NA   -0.979619379162    0.851358180647    1.576673570387
