13

 N   -0.979973471778    0.851091384737   -0.374408305229
 C    0.193766111305    1.578463576247   -0.374720784399
 H    0.076049251242    2.663782035291   -0.374836631958
 C   -1.025749444858   -0.542120407130   -0.374793359798
 O   -2.077337613414   -1.176223720971   -0.374449992694
 N    0.234691096283   -1.125590463262   -0.374376456476
 H    0.244506893406   -2.143875575128   -0.374403760571
 C    1.495945385516   -0.489534976299   -0.374359361640
 O    2.529638313584   -1.158798810715   -0.375105027304
 C    1.414466593756    0.971012085091   -0.374859259087
 H    2.337866732058    1.548072343957   -0.375199935864
 H   -1.883710647726    1.310745506097   -0.374609956829
NA   -0.979574204200    0.851392218338    1.825591637973
