13

 N   -0.980001283628    0.851070429519   -0.527654079237
 C    0.193738299455    1.578442621029   -0.527966558407
 H    0.076021439392    2.663761080073   -0.528082405966
 C   -1.025777256708   -0.542141362348   -0.528039133806
 O   -2.077365425264   -1.176244676189   -0.527695766702
 N    0.234663284433   -1.125611418480   -0.527622230484
 H    0.244479081556   -2.143896530346   -0.527649534579
 C    1.495917573666   -0.489555931517   -0.527605135648
 O    2.529610501734   -1.158819765933   -0.528350801312
 C    1.414438781906    0.970991129873   -0.528105033095
 H    2.337838920208    1.548051388739   -0.528445709872
 H   -1.883738459576    1.310724550879   -0.527855730837
NA   -0.979438679313    0.851494331411    2.572345840728
