13

 N   -0.980004373834    0.851068101162   -0.544681387460
 C    0.193735209249    1.578440292672   -0.544993866630
 H    0.076018349186    2.663758751716   -0.545109714189
 C   -1.025780346914   -0.542143690705   -0.545066442029
 O   -2.077368515470   -1.176247004546   -0.544723074925
 N    0.234660194227   -1.125613746837   -0.544649538707
 H    0.244475991350   -2.143898858703   -0.544676842802
 C    1.495914483460   -0.489558259874   -0.544632443871
 O    2.529607411528   -1.158822094290   -0.545378109535
 C    1.414435691700    0.970988801516   -0.545132341318
 H    2.337835830002    1.548049060382   -0.545473018095
 H   -1.883741549782    1.310722222522   -0.544883039060
NA   -0.979423620993    0.851505677308    2.655318529923
