13

 N   -0.980010554245    0.851063444447   -0.578736003907
 C    0.193729028838    1.578435635957   -0.579048483077
 H    0.076012168775    2.663754095001   -0.579164330636
 C   -1.025786527325   -0.542148347420   -0.579121058476
 O   -2.077374695881   -1.176251661261   -0.578777691372
 N    0.234654013816   -1.125618403552   -0.578704155154
 H    0.244469810939   -2.143903515418   -0.578731459249
 C    1.495908303049   -0.489562916589   -0.578687060318
 O    2.529601231117   -1.158826751005   -0.579432725982
 C    1.414429511289    0.970984144801   -0.579186957765
 H    2.337829649591    1.548044403667   -0.579527634542
 H   -1.883747730193    1.310717565807   -0.578937655507
NA   -0.979393504351    0.851528369103    2.821263908313
