13

 N   -0.980016734656    0.851058787731   -0.612790620353
 C    0.193722848427    1.578430979241   -0.613103099523
 H    0.076005988364    2.663749438285   -0.613218947082
 C   -1.025792707736   -0.542153004136   -0.613175674922
 O   -2.077380876292   -1.176256317977   -0.612832307818
 N    0.234647833405   -1.125623060268   -0.612758771600
 H    0.244463630528   -2.143908172134   -0.612786075695
 C    1.495902122638   -0.489567573305   -0.612741676764
 O    2.529595050706   -1.158831407721   -0.613487342428
 C    1.414423330878    0.970979488085   -0.613241574211
 H    2.337823469180    1.548039746951   -0.613582250988
 H   -1.883753910604    1.310712909091   -0.612992271953
NA   -0.979363387710    0.851551060897    2.987209286703
