13

 N   -0.980026005273    0.851051802659   -0.663872545023
 C    0.193713577810    1.578423994169   -0.664185024193
 H    0.075996717747    2.663742453213   -0.664300871752
 C   -1.025801978353   -0.542159989208   -0.664257599592
 O   -2.077390146909   -1.176263303049   -0.663914232488
 N    0.234638562788   -1.125630045340   -0.663840696270
 H    0.244454359911   -2.143915157206   -0.663868000365
 C    1.495892852021   -0.489574558377   -0.663823601434
 O    2.529585780089   -1.158838392793   -0.664569267098
 C    1.414414060261    0.970972503013   -0.664323498881
 H    2.337814198563    1.548032761879   -0.664664175658
 H   -1.883763181221    1.310705924019   -0.664074196623
NA   -0.979318212748    0.851585098588    3.236127354288
