13

 N   -0.980044546506    0.851037832514   -0.766036394362
 C    0.193695036577    1.578410024024   -0.766348873532
 H    0.075978176514    2.663728483068   -0.766464721091
 C   -1.025820519586   -0.542173959353   -0.766421448931
 O   -2.077408688142   -1.176277273194   -0.766078081827
 N    0.234620021555   -1.125644015485   -0.766004545609
 H    0.244435818678   -2.143929127351   -0.766031849704
 C    1.495874310788   -0.489588528522   -0.765987450773
 O    2.529567238856   -1.158852362938   -0.766733116437
 C    1.414395519028    0.970958532868   -0.766487348220
 H    2.337795657330    1.548018791734   -0.766828024997
 H   -1.883781722454    1.310691953874   -0.766238045962
NA   -0.979227862824    0.851653173970    3.733963489458
