13

 N   -0.980050726917    0.851033175799   -0.800091010808
 C    0.193688856166    1.578405367309   -0.800403489978
 H    0.075971996103    2.663723826353   -0.800519337537
 C   -1.025826699997   -0.542178616068   -0.800476065377
 O   -2.077414868553   -1.176281929909   -0.800132698273
 N    0.234613841144   -1.125648672200   -0.800059162055
 H    0.244429638267   -2.143933784066   -0.800086466150
 C    1.495868130377   -0.489593185237   -0.800042067219
 O    2.529561058445   -1.158857019653   -0.800787732883
 C    1.414389338617    0.970953876153   -0.800541964666
 H    2.337789476919    1.548014135019   -0.800882641443
 H   -1.883787902865    1.310687297159   -0.800292662408
NA   -0.979197746182    0.851675865764    3.899908867849
