13

 N   -0.980053817123    0.851030847441   -0.817118319031
 C    0.193685765960    1.578403038951   -0.817430798201
 H    0.075968905897    2.663721497995   -0.817546645760
 C   -1.025829790203   -0.542180944426   -0.817503373600
 O   -2.077417958759   -1.176284258267   -0.817160006496
 N    0.234610750938   -1.125651000558   -0.817086470278
 H    0.244426548061   -2.143936112424   -0.817113774373
 C    1.495865040171   -0.489595513595   -0.817069375442
 O    2.529557968239   -1.158859348011   -0.817815041106
 C    1.414386248411    0.970951547795   -0.817569272889
 H    2.337786386713    1.548011806661   -0.817909949666
 H   -1.883790993071    1.310684968801   -0.817319970631
NA   -0.979182687862    0.851687211661    3.982881557044
