13

 N   -0.980056907328    0.851028519083   -0.834145627255
 C    0.193682675755    1.578400710593   -0.834458106425
 H    0.075965815692    2.663719169637   -0.834573953984
 C   -1.025832880408   -0.542183272784   -0.834530681824
 O   -2.077421048964   -1.176286586625   -0.834187314720
 N    0.234607660733   -1.125653328916   -0.834113778502
 H    0.244423457856   -2.143938440782   -0.834141082597
 C    1.495861949966   -0.489597841953   -0.834096683666
 O    2.529554878034   -1.158861676369   -0.834842349330
 C    1.414383158206    0.970949219437   -0.834596581113
 H    2.337783296508    1.548009478303   -0.834937257890
 H   -1.883794083276    1.310682640443   -0.834347278855
NA   -0.979167629541    0.851698557558    4.065854246239
