13

 N   -0.980066177945    0.851021534011   -0.885227551924
 C    0.193673405138    1.578393725521   -0.885540031094
 H    0.075956545075    2.663712184565   -0.885655878653
 C   -1.025842151025   -0.542190257856   -0.885612606493
 O   -2.077430319581   -1.176293571697   -0.885269239389
 N    0.234598390116   -1.125660313988   -0.885195703171
 H    0.244414187239   -2.143945425854   -0.885223007266
 C    1.495852679349   -0.489604827025   -0.885178608335
 O    2.529545607417   -1.158868661441   -0.885924273999
 C    1.414373887589    0.970942234365   -0.885678505782
 H    2.337774025891    1.548002493231   -0.886019182559
 H   -1.883803353893    1.310675655371   -0.885429203524
NA   -0.979122454579    0.851732595249    4.314772313824
