13

 N   -0.980072358356    0.851016877296   -0.919282168370
 C    0.193667224727    1.578389068806   -0.919594647540
 H    0.075950364664    2.663707527850   -0.919710495099
 C   -1.025848331436   -0.542194914571   -0.919667222939
 O   -2.077436499992   -1.176298228412   -0.919323855835
 N    0.234592209705   -1.125664970703   -0.919250319617
 H    0.244408006828   -2.143950082569   -0.919277623712
 C    1.495846498938   -0.489609483740   -0.919233224781
 O    2.529539427006   -1.158873318156   -0.919978890445
 C    1.414367707178    0.970937577650   -0.919733122228
 H    2.337767845480    1.547997836516   -0.920073799005
 H   -1.883809534304    1.310670998656   -0.919483819970
NA   -0.979092337937    0.851755287044    4.480717692214
