13

 N   -0.980087809384    0.851005235508   -1.004418709486
 C    0.193651773699    1.578377427018   -1.004731188656
 H    0.075934913636    2.663695886062   -1.004847036215
 C   -1.025863782464   -0.542206556359   -1.004803764055
 O   -2.077451951020   -1.176309870200   -1.004460396951
 N    0.234576758677   -1.125676612491   -1.004386860733
 H    0.244392555800   -2.143961724357   -1.004414164828
 C    1.495831047910   -0.489621125528   -1.004369765897
 O    2.529523975978   -1.158884959944   -1.005115431561
 C    1.414352256150    0.970925935862   -1.004869663344
 H    2.337752394452    1.547986194728   -1.005210340121
 H   -1.883824985332    1.310659356868   -1.004620361086
NA   -0.979017046334    0.851812016529    4.895581138189
