13

 N   -0.980090899590    0.851002907151   -1.021446017710
 C    0.193648683493    1.578375098661   -1.021758496880
 H    0.075931823430    2.663693557705   -1.021874344439
 C   -1.025866872670   -0.542208884716   -1.021831072279
 O   -2.077455041226   -1.176312198557   -1.021487705175
 N    0.234573668471   -1.125678940848   -1.021414168957
 H    0.244389465594   -2.143964052714   -1.021441473052
 C    1.495827957704   -0.489623453885   -1.021397074121
 O    2.529520885772   -1.158887288301   -1.022142739785
 C    1.414349165944    0.970923607505   -1.021896971568
 H    2.337749304246    1.547983866371   -1.022237648345
 H   -1.883828075538    1.310657028511   -1.021647669310
NA   -0.979001988013    0.851823362426    4.978553827384
