13

 N   -0.980093989796    0.851000578793   -1.038473325933
 C    0.193645593287    1.578372770303   -1.038785805103
 H    0.075928733224    2.663691229347   -1.038901652662
 C   -1.025869962876   -0.542211213074   -1.038858380502
 O   -2.077458131432   -1.176314526915   -1.038515013398
 N    0.234570578265   -1.125681269206   -1.038441477180
 H    0.244386375388   -2.143966381072   -1.038468781275
 C    1.495824867498   -0.489625782243   -1.038424382344
 O    2.529517795566   -1.158889616659   -1.039170048008
 C    1.414346075738    0.970921279147   -1.038924279791
 H    2.337746214040    1.547981538013   -1.039264956568
 H   -1.883831165744    1.310654700153   -1.038674977533
NA   -0.978986929693    0.851834708323    5.061526516579
