13

 N   -0.980106350618    0.850991265363   -1.106582558826
 C    0.193633232465    1.578363456873   -1.106895037996
 H    0.075916372402    2.663681915917   -1.107010885555
 C   -1.025882323698   -0.542220526504   -1.106967613395
 O   -2.077470492254   -1.176323840345   -1.106624246291
 N    0.234558217443   -1.125690582636   -1.106550710073
 H    0.244374014566   -2.143975694502   -1.106578014168
 C    1.495812506676   -0.489635095673   -1.106533615237
 O    2.529505434744   -1.158898930089   -1.107279280901
 C    1.414333714916    0.970911965717   -1.107033512684
 H    2.337733853218    1.547972224583   -1.107374189461
 H   -1.883843526566    1.310645386723   -1.106784210426
NA   -0.978926696410    0.851880091911    5.393417273359
