13

 N   -0.980109440823    0.850988937005   -1.123609867049
 C    0.193630142260    1.578361128515   -1.123922346219
 H    0.075913282197    2.663679587559   -1.124038193778
 C   -1.025885413903   -0.542222854862   -1.123994921618
 O   -2.077473582459   -1.176326168703   -1.123651554514
 N    0.234555127238   -1.125692910994   -1.123578018296
 H    0.244370924361   -2.143978022860   -1.123605322391
 C    1.495809416471   -0.489637424031   -1.123560923460
 O    2.529502344539   -1.158901258447   -1.124306589124
 C    1.414330624711    0.970909637359   -1.124060820907
 H    2.337730763013    1.547969896225   -1.124401497684
 H   -1.883846616771    1.310643058365   -1.123811518649
NA   -0.978911638089    0.851891437808    5.476389962554
