13

 N   -0.980118711440    0.850981951933   -1.174691791718
 C    0.193620871643    1.578354143443   -1.175004270888
 H    0.075904011580    2.663672602487   -1.175120118447
 C   -1.025894684520   -0.542229839934   -1.175076846287
 O   -2.077482853076   -1.176333153775   -1.174733479183
 N    0.234545856621   -1.125699896066   -1.174659942965
 H    0.244361653744   -2.143985007932   -1.174687247060
 C    1.495800145854   -0.489644409103   -1.174642848129
 O    2.529493073922   -1.158908243519   -1.175388513793
 C    1.414321354094    0.970902652287   -1.175142745576
 H    2.337721492396    1.547962911153   -1.175483422353
 H   -1.883855887388    1.310636073293   -1.174893443318
NA   -0.978866463127    0.851925475499    5.725308030140
