13

 N   -0.980121801646    0.850979623575   -1.191719099941
 C    0.193617781437    1.578351815085   -1.192031579111
 H    0.075900921374    2.663670274129   -1.192147426670
 C   -1.025897774726   -0.542232168292   -1.192104154510
 O   -2.077485943282   -1.176335482133   -1.191760787406
 N    0.234542766415   -1.125702224424   -1.191687251188
 H    0.244358563538   -2.143987336290   -1.191714555283
 C    1.495797055648   -0.489646737461   -1.191670156352
 O    2.529489983716   -1.158910571877   -1.192415822016
 C    1.414318263888    0.970900323929   -1.192170053799
 H    2.337718402190    1.547960582795   -1.192510730576
 H   -1.883858977594    1.310633744935   -1.191920751541
NA   -0.978851404806    0.851936821396    5.808280719335
