13

 N   -0.980124891851    0.850977295218   -1.208746408165
 C    0.193614691232    1.578349486728   -1.209058887335
 H    0.075897831169    2.663667945772   -1.209174734894
 C   -1.025900864931   -0.542234496649   -1.209131462734
 O   -2.077489033487   -1.176337810490   -1.208788095630
 N    0.234539676210   -1.125704552781   -1.208714559412
 H    0.244355473333   -2.143989664647   -1.208741863507
 C    1.495793965443   -0.489649065818   -1.208697464576
 O    2.529486893511   -1.158912900234   -1.209443130240
 C    1.414315173683    0.970897995572   -1.209197362023
 H    2.337715311985    1.547958254438   -1.209538038800
 H   -1.883862067799    1.310631416578   -1.208948059765
NA   -0.978836346486    0.851948167293    5.891253408530
