13

 N   -0.980134162468    0.850970310145   -1.259828332834
 C    0.193605420615    1.578342501655   -1.260140812004
 H    0.075888560552    2.663660960699   -1.260256659563
 C   -1.025910135548   -0.542241481722   -1.260213387403
 O   -2.077498304104   -1.176344795563   -1.259870020299
 N    0.234530405593   -1.125711537854   -1.259796484081
 H    0.244346202716   -2.143996649720   -1.259823788176
 C    1.495784694826   -0.489656050891   -1.259779389245
 O    2.529477622894   -1.158919885307   -1.260525054909
 C    1.414305903066    0.970891010499   -1.260279286692
 H    2.337706041368    1.547951269365   -1.260619963469
 H   -1.883871338416    1.310624431505   -1.260029984434
NA   -0.978791171524    0.851982204985    6.140171476115
