13

 N   -0.980140342879    0.850965653430   -1.293882949281
 C    0.193599240204    1.578337844940   -1.294195428451
 H    0.075882380141    2.663656303984   -1.294311276010
 C   -1.025916315959   -0.542246138437   -1.294268003850
 O   -2.077504484515   -1.176349452278   -1.293924636746
 N    0.234524225182   -1.125716194569   -1.293851100528
 H    0.244340022305   -2.144001306435   -1.293878404623
 C    1.495778514415   -0.489660707606   -1.293834005692
 O    2.529471442483   -1.158924542022   -1.294579671356
 C    1.414299722655    0.970886353784   -1.294333903139
 H    2.337699860957    1.547946612650   -1.294674579916
 H   -1.883877518827    1.310619774790   -1.294084600881
NA   -0.978761054882    0.852004896779    6.306116854505
