13

 N   -0.980146523291    0.850960996715   -1.327937565727
 C    0.193593059792    1.578333188225   -1.328250044897
 H    0.075876199729    2.663651647269   -1.328365892456
 C   -1.025922496371   -0.542250795152   -1.328322620296
 O   -2.077510664927   -1.176354108993   -1.327979253192
 N    0.234518044770   -1.125720851284   -1.327905716974
 H    0.244333841893   -2.144005963150   -1.327933021069
 C    1.495772334003   -0.489665364321   -1.327888622138
 O    2.529465262071   -1.158929198737   -1.328634287802
 C    1.414293542243    0.970881697069   -1.328388519585
 H    2.337693680545    1.547941955935   -1.328729196362
 H   -1.883883699239    1.310615118075   -1.328139217327
NA   -0.978730938241    0.852027588573    6.472062232895
