13

 N   -0.980149613496    0.850958668357   -1.344964873950
 C    0.193589969587    1.578330859867   -1.345277353120
 H    0.075873109524    2.663649318911   -1.345393200679
 C   -1.025925586576   -0.542253123510   -1.345349928519
 O   -2.077513755132   -1.176356437351   -1.345006561415
 N    0.234514954565   -1.125723179642   -1.344933025197
 H    0.244330751688   -2.144008291508   -1.344960329292
 C    1.495769243798   -0.489667692679   -1.344915930361
 O    2.529462171866   -1.158931527095   -1.345661596025
 C    1.414290452038    0.970879368711   -1.345415827808
 H    2.337690590340    1.547939627577   -1.345756504585
 H   -1.883886789444    1.310612789717   -1.345166525550
NA   -0.978715879920    0.852038934470    6.555034922090
