13

 N   -0.980155793907    0.850954011642   -1.379019490396
 C    0.193583789176    1.578326203152   -1.379331969566
 H    0.075866929113    2.663644662196   -1.379447817125
 C   -1.025931766987   -0.542257780225   -1.379404544965
 O   -2.077519935543   -1.176361094066   -1.379061177861
 N    0.234508774154   -1.125727836357   -1.378987641643
 H    0.244324571277   -2.144012948223   -1.379014945738
 C    1.495763063387   -0.489672349394   -1.378970546807
 O    2.529455991455   -1.158936183810   -1.379716212471
 C    1.414284271627    0.970874711996   -1.379470444254
 H    2.337684409929    1.547934970862   -1.379811121031
 H   -1.883892969855    1.310608133002   -1.379221141996
NA   -0.978685763279    0.852061626264    6.720980300480
