13

 N   -0.980158884113    0.850951683285   -1.396046798620
 C    0.193580698970    1.578323874795   -1.396359277790
 H    0.075863838907    2.663642333839   -1.396475125349
 C   -1.025934857193   -0.542260108582   -1.396431853189
 O   -2.077523025749   -1.176363422423   -1.396088486085
 N    0.234505683948   -1.125730164714   -1.396014949867
 H    0.244321481071   -2.144015276580   -1.396042253962
 C    1.495759973181   -0.489674677751   -1.395997855031
 O    2.529452901249   -1.158938512167   -1.396743520695
 C    1.414281181421    0.970872383639   -1.396497752478
 H    2.337681319723    1.547932642505   -1.396838429255
 H   -1.883896060061    1.310605804645   -1.396248450220
NA   -0.978670704958    0.852072972161    6.803952989675
