13

 N   -0.980165064524    0.850947026570   -1.430101415066
 C    0.193574518559    1.578319218080   -1.430413894236
 H    0.075857658496    2.663637677124   -1.430529741795
 C   -1.025941037604   -0.542264765297   -1.430486469635
 O   -2.077529206160   -1.176368079138   -1.430143102531
 N    0.234499503537   -1.125734821429   -1.430069566313
 H    0.244315300660   -2.144019933295   -1.430096870408
 C    1.495753792770   -0.489679334466   -1.430052471477
 O    2.529446720838   -1.158943168882   -1.430798137141
 C    1.414275001010    0.970867726924   -1.430552368924
 H    2.337675139312    1.547927985790   -1.430893045701
 H   -1.883902240472    1.310601147930   -1.430303066666
NA   -0.978640588317    0.852095663955    6.969898368065
