13

 N   -0.980174335141    0.850940041497   -1.481183339736
 C    0.193565247942    1.578312233007   -1.481495818906
 H    0.075848387879    2.663630692051   -1.481611666465
 C   -1.025950308221   -0.542271750370   -1.481568394305
 O   -2.077538476777   -1.176375064211   -1.481225027201
 N    0.234490232920   -1.125741806502   -1.481151490983
 H    0.244306030043   -2.144026918368   -1.481178795078
 C    1.495744522153   -0.489686319539   -1.481134396147
 O    2.529437450221   -1.158950153955   -1.481880061811
 C    1.414265730393    0.970860741851   -1.481634293594
 H    2.337665868695    1.547921000717   -1.481974970371
 H   -1.883911511089    1.310594162857   -1.481384991336
NA   -0.978595413355    0.852129701646    7.218816435650
