13

 N   -0.980177425346    0.850937713140   -1.498210647959
 C    0.193562157737    1.578309904650   -1.498523127129
 H    0.075845297674    2.663628363694   -1.498638974688
 C   -1.025953398426   -0.542274078727   -1.498595702528
 O   -2.077541566982   -1.176377392568   -1.498252335424
 N    0.234487142715   -1.125744134859   -1.498178799206
 H    0.244302939838   -2.144029246725   -1.498206103301
 C    1.495741431948   -0.489688647896   -1.498161704370
 O    2.529434360016   -1.158952482312   -1.498907370034
 C    1.414262640188    0.970858413494   -1.498661601817
 H    2.337662778490    1.547918672360   -1.499002278594
 H   -1.883914601294    1.310591834500   -1.498412299559
NA   -0.978580355034    0.852141047543    7.301789124845
