13

 N   -0.980195966580    0.850923742994   -1.600374497298
 C    0.193543616503    1.578295934504   -1.600686976468
 H    0.075826756440    2.663614393548   -1.600802824027
 C   -1.025971939660   -0.542288048873   -1.600759551867
 O   -2.077560108216   -1.176391362714   -1.600416184763
 N    0.234468601481   -1.125758105005   -1.600342648545
 H    0.244284398604   -2.144043216871   -1.600369952640
 C    1.495722890714   -0.489702618042   -1.600325553709
 O    2.529415818782   -1.158966452458   -1.601071219373
 C    1.414244098954    0.970844443348   -1.600825451156
 H    2.337644237256    1.547904702214   -1.601166127933
 H   -1.883933142528    1.310577864354   -1.600576148898
NA   -0.978490005110    0.852209122926    7.799625260016
