13

 N   -0.980205237197    0.850916757922   -1.651456421967
 C    0.193534345886    1.578288949432   -1.651768901137
 H    0.075817485823    2.663607408476   -1.651884748696
 C   -1.025981210277   -0.542295033945   -1.651841476536
 O   -2.077569378833   -1.176398347786   -1.651498109432
 N    0.234459330864   -1.125765090077   -1.651424573214
 H    0.244275127987   -2.144050201943   -1.651451877309
 C    1.495713620097   -0.489709603114   -1.651407478378
 O    2.529406548165   -1.158973437530   -1.652153144042
 C    1.414234828337    0.970837458276   -1.651907375825
 H    2.337634966639    1.547897717142   -1.652248052602
 H   -1.883942413145    1.310570879282   -1.651658073567
NA   -0.978444830148    0.852243160617    8.048543327601
