16

 N   -1.675714875112    0.106443402149    0.214592915077
 C   -0.443589142845   -0.523846877859    0.215547875385
 N   -0.173448206719   -1.844732352827    0.212083686438
 C    1.154680961744   -2.062926245577    0.227651115101
 H    1.468489244714   -3.109604978067    0.231030685792
 N    2.167030404785   -1.154945288436    0.241622385376
 C    1.854813660878    0.155875794813    0.236975981476
 N    2.862440615680    1.080374432118    0.195154144545
 H    3.793892153067    0.749844323366    0.417612078678
 H    2.629703109653    2.040345187157    0.419964389985
 C    0.489312820004    0.532569648680    0.228204893761
 N   -0.134216491187    1.771535349310    0.238083102779
 C   -1.434141978344    1.463455960949    0.229628249621
 H   -2.244195507131    2.190036762051    0.233676387484
 H   -2.579504552282   -0.353813721685    0.206989859144
 K   -1.673350929745    0.109549470804   -0.785399466943
