16

 N   -1.675767805249    0.106373855431    0.236983337049
 C   -0.443642072982   -0.523916424577    0.237938297357
 N   -0.173501136856   -1.844801899545    0.234474108410
 C    1.154628031607   -2.062995792295    0.250041537073
 H    1.468436314577   -3.109674524785    0.253421107764
 N    2.166977474648   -1.155014835154    0.264012807348
 C    1.854760730741    0.155806248095    0.259366403448
 N    2.862387685543    1.080304885400    0.217544566517
 H    3.793839222930    0.749774776648    0.440002500650
 H    2.629650179516    2.040275640439    0.442354811957
 C    0.489259889867    0.532500101962    0.250595315733
 N   -0.134269421324    1.771465802592    0.260473524751
 C   -1.434194908481    1.463386414231    0.252018671593
 H   -2.244248437268    2.189967215333    0.256066809456
 H   -2.579557482419   -0.353883268403    0.229380281116
 K   -1.673167465346    0.109790530952   -0.863008283174
