16

 N   -1.675873665524    0.106234761996    0.281764180993
 C   -0.443747933257   -0.524055518012    0.282719141301
 N   -0.173606997131   -1.844940992980    0.279254952354
 C    1.154522171332   -2.063134885730    0.294822381017
 H    1.468330454302   -3.109813618220    0.298201951708
 N    2.166871614373   -1.155153928589    0.308793651292
 C    1.854654870466    0.155667154660    0.304147247392
 N    2.862281825268    1.080165791965    0.262325410461
 H    3.793733362655    0.749635683213    0.484783344594
 H    2.629544319241    2.040136547004    0.487135655901
 C    0.489154029592    0.532361008527    0.295376159677
 N   -0.134375281599    1.771326709157    0.305254368695
 C   -1.434300768756    1.463247320796    0.296799515537
 H   -2.244354297543    2.189828121898    0.300847653400
 H   -2.579663342694   -0.354022361838    0.274161125060
 K   -1.672800536548    0.110272651248   -1.018225915634
