16

 N   -1.675979525799    0.106095668560    0.326545024937
 C   -0.443853793532   -0.524194611448    0.327499985245
 N   -0.173712857406   -1.845080086416    0.324035796298
 C    1.154416311057   -2.063273979166    0.339603224961
 H    1.468224594027   -3.109952711656    0.342982795652
 N    2.166765754098   -1.155293022025    0.353574495236
 C    1.854549010191    0.155528061224    0.348928091336
 N    2.862175964993    1.080026698529    0.307106254405
 H    3.793627502380    0.749496589777    0.529564188538
 H    2.629438458966    2.039997453568    0.531916499845
 C    0.489048169317    0.532221915091    0.340157003621
 N   -0.134481141874    1.771187615721    0.350035212639
 C   -1.434406629031    1.463108227360    0.341580359481
 H   -2.244460157818    2.189689028462    0.345628497344
 H   -2.579769202969   -0.354161455274    0.318941969004
 K   -1.672433607750    0.110754771544   -1.173443548095
