16

 N   -1.676085386074    0.105956575125    0.371325868881
 C   -0.443959653807   -0.524333704883    0.372280829189
 N   -0.173818717681   -1.845219179851    0.368816640242
 C    1.154310450782   -2.063413072601    0.384384068905
 H    1.468118733752   -3.110091805091    0.387763639596
 N    2.166659893823   -1.155432115460    0.398355339180
 C    1.854443149916    0.155388967789    0.393708935280
 N    2.862070104718    1.079887605094    0.351887098349
 H    3.793521642105    0.749357496342    0.574345032482
 H    2.629332598691    2.039858360133    0.576697343789
 C    0.488942309042    0.532082821656    0.384937847565
 N   -0.134587002149    1.771048522286    0.394816056583
 C   -1.434512489306    1.462969133925    0.386361203425
 H   -2.244566018093    2.189549935027    0.390409341288
 H   -2.579875063244   -0.354300548709    0.363722812948
 K   -1.672066678951    0.111236891839   -1.328661180555
