16

 N   -1.680478587486    0.100184197558    2.229730892545
 C   -0.448352855219   -0.530106082450    2.230685852853
 N   -0.178211919093   -1.850991557418    2.227221663906
 C    1.149917249370   -2.069185450168    2.242789092569
 H    1.463725532340   -3.115864182658    2.246168663260
 N    2.162266692411   -1.161204493027    2.256760362844
 C    1.850049948504    0.149616590222    2.252113958944
 N    2.857676903306    1.074115227527    2.210292122013
 H    3.789128440693    0.743585118775    2.432750056146
 H    2.624939397279    2.034085982566    2.435102367453
 C    0.484549107630    0.526310444089    2.243342871229
 N   -0.138980203561    1.765276144719    2.253221080247
 C   -1.438905690718    1.457196756358    2.244766227089
 H   -2.248959219505    2.183777557460    2.248814364952
 H   -2.584268264656   -0.360072926276    2.222127836612
 K   -1.656839133822    0.131244884112   -7.770192927664
