16

 N   -1.676402966899    0.105539294819    0.505668400712
 C   -0.444277234632   -0.524750985189    0.506623361020
 N   -0.174136298506   -1.845636460157    0.503159172073
 C    1.153992869957   -2.063830352907    0.518726600736
 H    1.467801152927   -3.110509085397    0.522106171427
 N    2.166342312998   -1.155849395766    0.532697871011
 C    1.854125569091    0.154971687483    0.528051467111
 N    2.861752523893    1.079470324788    0.486229630180
 H    3.793204061280    0.748940216036    0.708687564313
 H    2.629015017866    2.039441079827    0.711039875620
 C    0.488624728217    0.531665541350    0.519280379396
 N   -0.134904582974    1.770631241980    0.529158588414
 C   -1.434830070131    1.462551853619    0.520703735256
 H   -2.244883598918    2.189132654721    0.524751873119
 H   -2.580192644069   -0.354717829015    0.498065344779
 K   -1.670965892556    0.112683252726   -1.794314077936
