16

 N   -1.676455897037    0.105469748101    0.528058822684
 C   -0.444330164770   -0.524820531907    0.529013782992
 N   -0.174189228644   -1.845706006875    0.525549594045
 C    1.153939939819   -2.063899899625    0.541117022708
 H    1.467748222789   -3.110578632115    0.544496593399
 N    2.166289382860   -1.155918942484    0.555088292983
 C    1.854072638953    0.154902140765    0.550441889083
 N    2.861699593755    1.079400778070    0.508620052152
 H    3.793151131142    0.748870669318    0.731077986285
 H    2.628962087728    2.039371533109    0.733430297592
 C    0.488571798079    0.531595994632    0.541670801368
 N   -0.134957513112    1.770561695262    0.551549010386
 C   -1.434883000269    1.462482306901    0.543094157228
 H   -2.244936529056    2.189063108003    0.547142295091
 H   -2.580245574207   -0.354787375733    0.520455766751
 K   -1.670782428157    0.112924312874   -1.871922894167
