16

 N   -1.676561757312    0.105330654666    0.572839666627
 C   -0.444436025045   -0.524959625342    0.573794626935
 N   -0.174295088919   -1.845845100310    0.570330437988
 C    1.153834079544   -2.064038993060    0.585897866651
 H    1.467642362514   -3.110717725550    0.589277437342
 N    2.166183522585   -1.156058035919    0.599869136926
 C    1.853966778678    0.154763047330    0.595222733026
 N    2.861593733480    1.079261684635    0.553400896095
 H    3.793045270867    0.748731575883    0.775858830228
 H    2.628856227453    2.039232439674    0.778211141535
 C    0.488465937804    0.531456901197    0.586451645311
 N   -0.135063373387    1.770422601827    0.596329854329
 C   -1.434988860544    1.462343213466    0.587875001171
 H   -2.245042389331    2.188924014568    0.591923139034
 H   -2.580351434482   -0.354926469168    0.565236610694
 K   -1.670415499359    0.113406433170   -2.027140526627
