16

 N   -1.676614687449    0.105261107948    0.595230088599
 C   -0.444488955182   -0.525029172060    0.596185048907
 N   -0.174348019056   -1.845914647028    0.592720859960
 C    1.153781149407   -2.064108539778    0.608288288623
 H    1.467589432377   -3.110787272268    0.611667859314
 N    2.166130592448   -1.156127582637    0.622259558898
 C    1.853913848541    0.154693500612    0.617613154998
 N    2.861540803343    1.079192137917    0.575791318067
 H    3.792992340730    0.748662029165    0.798249252200
 H    2.628803297316    2.039162892956    0.800601563507
 C    0.488413007667    0.531387354479    0.608842067283
 N   -0.135116303524    1.770353055109    0.618720276301
 C   -1.435041790681    1.462273666748    0.610265423143
 H   -2.245095319468    2.188854467850    0.614313561006
 H   -2.580404364619   -0.354996015886    0.587627032666
 K   -1.670232034960    0.113647493318   -2.104749342857
