16

 N   -1.676773477862    0.105052467795    0.662401354515
 C   -0.444647745595   -0.525237812213    0.663356314823
 N   -0.174506809469   -1.846123287181    0.659892125876
 C    1.153622358994   -2.064317179931    0.675459554539
 H    1.467430641964   -3.110995912421    0.678839125230
 N    2.165971802035   -1.156336222790    0.689430824814
 C    1.853755058128    0.154484860459    0.684784420914
 N    2.861382012930    1.078983497764    0.642962583983
 H    3.792833550317    0.748453389012    0.865420518116
 H    2.628644506903    2.038954252803    0.867772829423
 C    0.488254217254    0.531178714326    0.676013333199
 N   -0.135275093937    1.770144414956    0.685891542217
 C   -1.435200581094    1.462065026595    0.677436689059
 H   -2.245254109881    2.188645827697    0.681484826922
 H   -2.580563155032   -0.355204656039    0.654798298582
 K   -1.669681641762    0.114370673761   -2.337575791548
