16

 N   -1.676879338137    0.104913374360    0.707182198459
 C   -0.444753605870   -0.525376905648    0.708137158767
 N   -0.174612669744   -1.846262380616    0.704672969820
 C    1.153516498719   -2.064456273366    0.720240398483
 H    1.467324781689   -3.111135005856    0.723619969174
 N    2.165865941760   -1.156475316225    0.734211668758
 C    1.853649197853    0.154345767024    0.729565264858
 N    2.861276152655    1.078844404329    0.687743427927
 H    3.792727690042    0.748314295577    0.910201362060
 H    2.628538646628    2.038815159368    0.912553673367
 C    0.488148356979    0.531039620891    0.720794177143
 N   -0.135380954212    1.770005321521    0.730672386161
 C   -1.435306441369    1.461925933160    0.722217533003
 H   -2.245359970156    2.188506734262    0.726265670866
 H   -2.580669015307   -0.355343749474    0.699579142526
 K   -1.669314712964    0.114852794057   -2.492793424008
