16

 N   -1.676985198412    0.104774280925    0.751963042402
 C   -0.444859466145   -0.525515999083    0.752918002710
 N   -0.174718530019   -1.846401474051    0.749453813763
 C    1.153410638444   -2.064595366801    0.765021242426
 H    1.467218921414   -3.111274099291    0.768400813117
 N    2.165760081485   -1.156614409660    0.778992512701
 C    1.853543337578    0.154206673589    0.774346108801
 N    2.861170292380    1.078705310894    0.732524271870
 H    3.792621829767    0.748175202142    0.954982206003
 H    2.628432786353    2.038676065933    0.957334517310
 C    0.488042496704    0.530900527456    0.765575021086
 N   -0.135486814487    1.769866228086    0.775453230104
 C   -1.435412301644    1.461786839725    0.766998376946
 H   -2.245465830431    2.188367640827    0.771046514809
 H   -2.580774875582   -0.355482842909    0.744359986469
 K   -1.668947784166    0.115334914353   -2.648011056469
