16

 N   -1.677038128549    0.104704734207    0.774353464374
 C   -0.444912396282   -0.525585545801    0.775308424682
 N   -0.174771460156   -1.846471020769    0.771844235735
 C    1.153357708307   -2.064664913519    0.787411664398
 H    1.467165991277   -3.111343646009    0.790791235089
 N    2.165707151348   -1.156683956378    0.801382934673
 C    1.853490407441    0.154137126871    0.796736530773
 N    2.861117362243    1.078635764176    0.754914693842
 H    3.792568899630    0.748105655424    0.977372627975
 H    2.628379856216    2.038606519215    0.979724939282
 C    0.487989566567    0.530830980738    0.787965443058
 N   -0.135539744624    1.769796681368    0.797843652076
 C   -1.435465231781    1.461717293007    0.789388798918
 H   -2.245518760568    2.188298094109    0.793436936781
 H   -2.580827805719   -0.355552389627    0.766750408441
 K   -1.668764319767    0.115575974501   -2.725619872699
