16

 N   -1.677143988824    0.104565640772    0.819134308318
 C   -0.445018256557   -0.525724639236    0.820089268626
 N   -0.174877320431   -1.846610114204    0.816625079679
 C    1.153251848032   -2.064804006954    0.832192508342
 H    1.467060131002   -3.111482739444    0.835572079033
 N    2.165601291073   -1.156823049813    0.846163778617
 C    1.853384547166    0.153998033436    0.841517374717
 N    2.861011501968    1.078496670741    0.799695537786
 H    3.792463039355    0.747966561989    1.022153471919
 H    2.628273995941    2.038467425780    1.024505783226
 C    0.487883706292    0.530691887303    0.832746287002
 N   -0.135645604899    1.769657587933    0.842624496020
 C   -1.435571092056    1.461578199572    0.834169642862
 H   -2.245624620843    2.188159000674    0.838217780725
 H   -2.580933665994   -0.355691483062    0.811531252385
 K   -1.668397390968    0.116058094797   -2.880837505159
