16

 N   -1.677408639512    0.104217907183    0.931086418177
 C   -0.445282907245   -0.526072372825    0.932041378485
 N   -0.175141971119   -1.846957847793    0.928577189538
 C    1.152987197344   -2.065151740543    0.944144618201
 H    1.466795480314   -3.111830473033    0.947524188892
 N    2.165336640385   -1.157170783402    0.958115888476
 C    1.853119896478    0.153650299847    0.953469484576
 N    2.860746851280    1.078148937152    0.911647647645
 H    3.792198388667    0.747618828400    1.134105581778
 H    2.628009345253    2.038119692191    1.136457893085
 C    0.487619055604    0.530344153714    0.944698396861
 N   -0.135910255587    1.769309854344    0.954576605879
 C   -1.435835742744    1.461230465983    0.946121752721
 H   -2.245889271531    2.187811267085    0.950169890584
 H   -2.581198316682   -0.356039216651    0.923483362244
 K   -1.667480068973    0.117263395536   -3.268881586311
