16

 N   -1.677514499787    0.104078813748    0.975867262121
 C   -0.445388767520   -0.526211466260    0.976822222429
 N   -0.175247831394   -1.847096941228    0.973358033482
 C    1.152881337069   -2.065290833978    0.988925462145
 H    1.466689620039   -3.111969566468    0.992305032836
 N    2.165230780110   -1.157309876837    1.002896732420
 C    1.853014036203    0.153511206412    0.998250328520
 N    2.860640991005    1.078009843717    0.956428491589
 H    3.792092528392    0.747479734965    1.178886425722
 H    2.627903484978    2.037980598756    1.181238737029
 C    0.487513195329    0.530205060279    0.989479240805
 N   -0.136016115862    1.769170760909    0.999357449823
 C   -1.435941603019    1.461091372548    0.990902596665
 H   -2.245995131806    2.187672173650    0.994950734528
 H   -2.581304176957   -0.356178310086    0.968264206188
 K   -1.667113140174    0.117745515832   -3.424099218771
