16

 N   -1.677567429924    0.104009267030    0.998257684093
 C   -0.445441697657   -0.526281012978    0.999212644401
 N   -0.175300761531   -1.847166487946    0.995748455454
 C    1.152828406932   -2.065360380696    1.011315884117
 H    1.466636689902   -3.112039113186    1.014695454808
 N    2.165177849973   -1.157379423555    1.025287154392
 C    1.852961106066    0.153441659694    1.020640750492
 N    2.860588060868    1.077940296999    0.978818913561
 H    3.792039598255    0.747410188247    1.201276847694
 H    2.627850554841    2.037911052038    1.203629159001
 C    0.487460265192    0.530135513561    1.011869662777
 N   -0.136069045999    1.769101214191    1.021747871795
 C   -1.435994533156    1.461021825830    1.013293018637
 H   -2.246048061943    2.187602626932    1.017341156500
 H   -2.581357107094   -0.356247856804    0.990654628160
 K   -1.666929675775    0.117986575979   -3.501708035001
