16

 N   -1.677726220337    0.103800626877    1.065428950008
 C   -0.445600488070   -0.526489653131    1.066383910316
 N   -0.175459551944   -1.847375128099    1.062919721369
 C    1.152669616519   -2.065569020849    1.078487150032
 H    1.466477899489   -3.112247753339    1.081866720723
 N    2.165019059560   -1.157588063708    1.092458420307
 C    1.852802315653    0.153233019541    1.087812016407
 N    2.860429270455    1.077731656846    1.045990179476
 H    3.791880807842    0.747201548094    1.268448113609
 H    2.627691764428    2.037702411885    1.270800424916
 C    0.487301474779    0.529926873408    1.079040928692
 N   -0.136227836412    1.768892574038    1.088919137710
 C   -1.436153323569    1.460813185677    1.080464284552
 H   -2.246206852356    2.187393986779    1.084512422415
 H   -2.581515897507   -0.356456496957    1.057825894075
 K   -1.666379282578    0.118709756423   -3.734534483692
