16

 N   -1.677779150474    0.103731080160    1.087819371980
 C   -0.445653418207   -0.526559199848    1.088774332288
 N   -0.175512482081   -1.847444674816    1.085310143341
 C    1.152616686382   -2.065638567566    1.100877572004
 H    1.466424969352   -3.112317300056    1.104257142695
 N    2.164966129423   -1.157657610425    1.114848842279
 C    1.852749385516    0.153163472824    1.110202438379
 N    2.860376340318    1.077662110129    1.068380601448
 H    3.791827877705    0.747132001377    1.290838535581
 H    2.627638834291    2.037632865168    1.293190846888
 C    0.487248544642    0.529857326691    1.101431350664
 N   -0.136280766549    1.768823027321    1.111309559682
 C   -1.436206253706    1.460743638960    1.102854706524
 H   -2.246259782493    2.187324440062    1.106902844387
 H   -2.581568827644   -0.356526043674    1.080216316047
 K   -1.666195818179    0.118950816571   -3.812143299922
