16

 N   -1.677937940887    0.103522440007    1.154990637896
 C   -0.445812208620   -0.526767840001    1.155945598204
 N   -0.175671272494   -1.847653314969    1.152481409257
 C    1.152457895969   -2.065847207719    1.168048837920
 H    1.466266178939   -3.112525940209    1.171428408611
 N    2.164807339010   -1.157866250578    1.182020108195
 C    1.852590595103    0.152954832671    1.177373704295
 N    2.860217549905    1.077453469976    1.135551867364
 H    3.791669087292    0.746923361224    1.358009801497
 H    2.627480043878    2.037424225015    1.360362112804
 C    0.487089754229    0.529648686538    1.168602616580
 N   -0.136439556962    1.768614387168    1.178480825598
 C   -1.436365044119    1.460534998807    1.170025972440
 H   -2.246418572906    2.187115799909    1.174074110303
 H   -2.581727618057   -0.356734683827    1.147387581963
 K   -1.665645424981    0.119673997014   -4.044969748613
