16

 N   -1.678096731299    0.103313799854    1.222161903811
 C   -0.445970999032   -0.526976480154    1.223116864119
 N   -0.175830062906   -1.847861955122    1.219652675172
 C    1.152299105557   -2.066055847872    1.235220103835
 H    1.466107388527   -3.112734580362    1.238599674526
 N    2.164648548598   -1.158074890731    1.249191374110
 C    1.852431804691    0.152746192518    1.244544970210
 N    2.860058759493    1.077244829823    1.202723133279
 H    3.791510296880    0.746714721071    1.425181067412
 H    2.627321253466    2.037215584862    1.427533378719
 C    0.486930963817    0.529440046385    1.235773882495
 N   -0.136598347374    1.768405747015    1.245652091513
 C   -1.436523834531    1.460326358654    1.237197238355
 H   -2.246577363318    2.186907159756    1.241245376218
 H   -2.581886408469   -0.356943323980    1.214558847878
 K   -1.665095031784    0.120397177458   -4.277796197303
