16

 N   -1.678202591574    0.103174706418    1.266942747755
 C   -0.446076859307   -0.527115573590    1.267897708063
 N   -0.175935923181   -1.848001048558    1.264433519116
 C    1.152193245282   -2.066194941308    1.280000947779
 H    1.466001528252   -3.112873673798    1.283380518470
 N    2.164542688323   -1.158213984167    1.293972218054
 C    1.852325944416    0.152607099082    1.289325814154
 N    2.859952899218    1.077105736387    1.247503977223
 H    3.791404436605    0.746575627635    1.469961911356
 H    2.627215393191    2.037076491426    1.472314222663
 C    0.486825103542    0.529300952949    1.280554726439
 N   -0.136704207649    1.768266653579    1.290432935457
 C   -1.436629694806    1.460187265218    1.281978082299
 H   -2.246683223593    2.186768066320    1.286026220162
 H   -2.581992268744   -0.357082417416    1.259339691822
 K   -1.664728102985    0.120879297754   -4.433013829764
