16

 N   -1.678414312124    0.102896519548    1.356504435643
 C   -0.446288579857   -0.527393760460    1.357459395951
 N   -0.176147643731   -1.848279235428    1.353995207004
 C    1.151981524732   -2.066473128178    1.369562635667
 H    1.465789807702   -3.113151860668    1.372942206358
 N    2.164330967773   -1.158492171037    1.383533905942
 C    1.852114223866    0.152328912212    1.378887502042
 N    2.859741178668    1.076827549517    1.337065665111
 H    3.791192716055    0.746297440765    1.559523599244
 H    2.627003672641    2.036798304556    1.561875910551
 C    0.486613382992    0.529022766079    1.370116414327
 N   -0.136915928199    1.767988466709    1.379994623345
 C   -1.436841415356    1.459909078348    1.371539770187
 H   -2.246894944143    2.186489879450    1.375587908050
 H   -2.582203989294   -0.357360604286    1.348901379710
 K   -1.663994245389    0.121843538345   -4.743449094685
