16

 N   -1.678467242262    0.102826972830    1.378894857614
 C   -0.446341509995   -0.527463307178    1.379849817922
 N   -0.176200573869   -1.848348782146    1.376385628975
 C    1.151928594594   -2.066542674896    1.391953057638
 H    1.465736877564   -3.113221407386    1.395332628329
 N    2.164278037635   -1.158561717755    1.405924327913
 C    1.852061293728    0.152259365494    1.401277924013
 N    2.859688248530    1.076758002799    1.359456087082
 H    3.791139785917    0.746227894047    1.581914021215
 H    2.626950742503    2.036728757838    1.584266332522
 C    0.486560452854    0.528953219361    1.392506836298
 N   -0.136968858337    1.767918919991    1.402385045316
 C   -1.436894345494    1.459839531630    1.393930192158
 H   -2.246947874281    2.186420332732    1.397978330021
 H   -2.582256919432   -0.357430151004    1.371291801681
 K   -1.663810780990    0.122084598493   -4.821057910915
