16

 N   -1.678520172399    0.102757426112    1.401285279586
 C   -0.446394440132   -0.527532853896    1.402240239894
 N   -0.176253504006   -1.848418328864    1.398776050947
 C    1.151875664457   -2.066612221614    1.414343479610
 H    1.465683947427   -3.113290954104    1.417723050301
 N    2.164225107498   -1.158631264473    1.428314749885
 C    1.852008363591    0.152189818776    1.423668345985
 N    2.859635318393    1.076688456081    1.381846509054
 H    3.791086855780    0.746158347329    1.604304443187
 H    2.626897812366    2.036659211120    1.606656754494
 C    0.486507522717    0.528883672643    1.414897258270
 N   -0.137021788474    1.767849373273    1.424775467288
 C   -1.436947275631    1.459769984912    1.416320614130
 H   -2.247000804418    2.186350786014    1.420368751993
 H   -2.582309849569   -0.357499697722    1.393682223653
 K   -1.663627316591    0.122325658641   -4.898666727145
