16

 N   -1.678731892949    0.102479239241    1.490846967474
 C   -0.446606160682   -0.527811040767    1.491801927782
 N   -0.176465224556   -1.848696515735    1.488337738835
 C    1.151663943907   -2.066890408485    1.503905167498
 H    1.465472226877   -3.113569140975    1.507284738189
 N    2.164013386948   -1.158909451344    1.517876437773
 C    1.851796643041    0.151911631905    1.513230033873
 N    2.859423597843    1.076410269210    1.471408196942
 H    3.790875135230    0.745880160458    1.693866131075
 H    2.626686091816    2.036381024249    1.696218442382
 C    0.486295802167    0.528605485772    1.504458946158
 N   -0.137233509024    1.767571186402    1.514337155176
 C   -1.437158996181    1.459491798041    1.505882302018
 H   -2.247212524968    2.186072599143    1.509930439881
 H   -2.582521570119   -0.357777884593    1.483243911541
 K   -1.662893458994    0.123289899232   -5.209101992066
