16

 N   -1.678784823086    0.102409692524    1.513237389446
 C   -0.446659090819   -0.527880587484    1.514192349754
 N   -0.176518154693   -1.848766062452    1.510728160807
 C    1.151611013770   -2.066959955202    1.526295589470
 H    1.465419296740   -3.113638687692    1.529675160161
 N    2.163960456811   -1.158978998061    1.540266859745
 C    1.851743712904    0.151842085188    1.535620455845
 N    2.859370667706    1.076340722493    1.493798618914
 H    3.790822205093    0.745810613741    1.716256553047
 H    2.626633161679    2.036311477532    1.718608864354
 C    0.486242872030    0.528535939055    1.526849368130
 N   -0.137286439161    1.767501639685    1.536727577148
 C   -1.437211926318    1.459422251324    1.528272723990
 H   -2.247265455105    2.186003052426    1.532320861853
 H   -2.582574500256   -0.357847431310    1.505634333513
 K   -1.662709994595    0.123530959380   -5.286710808296
