16

 N   -1.678890683361    0.102270599088    1.558018233389
 C   -0.446764951094   -0.528019680920    1.558973193697
 N   -0.176624014968   -1.848905155888    1.555509004750
 C    1.151505153495   -2.067099048638    1.571076433413
 H    1.465313436465   -3.113777781128    1.574456004104
 N    2.163854596536   -1.159118091497    1.585047703688
 C    1.851637852629    0.151702991752    1.580401299788
 N    2.859264807431    1.076201629057    1.538579462857
 H    3.790716344818    0.745671520305    1.761037396990
 H    2.626527301404    2.036172384096    1.763389708297
 C    0.486137011755    0.528396845619    1.571630212073
 N   -0.137392299436    1.767362546249    1.581508421091
 C   -1.437317786593    1.459283157888    1.573053567933
 H   -2.247371315380    2.185863958990    1.577101705796
 H   -2.582680360531   -0.357986524746    1.550415177456
 K   -1.662343065796    0.124013079676   -5.441928440757
