16

 N   -1.678943613499    0.102201052371    1.580408655361
 C   -0.446817881232   -0.528089227637    1.581363615669
 N   -0.176676945106   -1.848974702605    1.577899426722
 C    1.151452223357   -2.067168595355    1.593466855385
 H    1.465260506327   -3.113847327845    1.596846426076
 N    2.163801666398   -1.159187638214    1.607438125660
 C    1.851584922491    0.151633445035    1.602791721760
 N    2.859211877293    1.076132082340    1.560969884829
 H    3.790663414680    0.745601973588    1.783427818962
 H    2.626474371266    2.036102837379    1.785780130269
 C    0.486084081617    0.528327298902    1.594020634045
 N   -0.137445229574    1.767292999532    1.603898843063
 C   -1.437370716731    1.459213611171    1.595443989905
 H   -2.247424245518    2.185794412273    1.599492127768
 H   -2.582733290669   -0.358056071463    1.572805599428
 K   -1.662159601397    0.124254139824   -5.519537256987
