16

 N   -1.679049473774    0.102061958935    1.625189499305
 C   -0.446923741507   -0.528228321073    1.626144459613
 N   -0.176782805381   -1.849113796041    1.622680270666
 C    1.151346363082   -2.067307688791    1.638247699329
 H    1.465154646052   -3.113986421281    1.641627270020
 N    2.163695806123   -1.159326731650    1.652218969604
 C    1.851479062216    0.151494351599    1.647572565704
 N    2.859106017018    1.075992988904    1.605750728773
 H    3.790557554405    0.745462880152    1.828208662906
 H    2.626368510991    2.035963743943    1.830560974213
 C    0.485978221342    0.528188205466    1.638801477989
 N   -0.137551089849    1.767153906096    1.648679687007
 C   -1.437476577006    1.459074517735    1.640224833849
 H   -2.247530105793    2.185655318837    1.644272971712
 H   -2.582839150944   -0.358195164899    1.617586443372
 K   -1.661792672599    0.124736260120   -5.674754889447
