16

 N   -1.679155334049    0.101922865500    1.669970343249
 C   -0.447029601782   -0.528367414508    1.670925303557
 N   -0.176888665656   -1.849252889476    1.667461114610
 C    1.151240502807   -2.067446782226    1.683028543273
 H    1.465048785777   -3.114125514716    1.686408113964
 N    2.163589945848   -1.159465825085    1.696999813548
 C    1.851373201941    0.151355258164    1.692353409648
 N    2.859000156743    1.075853895469    1.650531572717
 H    3.790451694130    0.745323786717    1.872989506850
 H    2.626262650716    2.035824650508    1.875341818157
 C    0.485872361067    0.528049112031    1.683582321933
 N   -0.137656950124    1.767014812661    1.693460530951
 C   -1.437582437281    1.458935424300    1.685005677793
 H   -2.247635966068    2.185516225402    1.689053815656
 H   -2.582945011219   -0.358334258334    1.662367287316
 K   -1.661425743801    0.125218380415   -5.829972521908
