16

 N   -1.679208264186    0.101853318782    1.692360765221
 C   -0.447082531919   -0.528436961226    1.693315725529
 N   -0.176941595793   -1.849322436194    1.689851536582
 C    1.151187572670   -2.067516328944    1.705418965245
 H    1.464995855640   -3.114195061434    1.708798535936
 N    2.163537015711   -1.159535371803    1.719390235520
 C    1.851320271804    0.151285711446    1.714743831620
 N    2.858947226606    1.075784348751    1.672921994689
 H    3.790398763993    0.745254239999    1.895379928822
 H    2.626209720579    2.035755103790    1.897732240129
 C    0.485819430930    0.527979565313    1.705972743905
 N   -0.137709880261    1.766945265943    1.715850952923
 C   -1.437635367418    1.458865877582    1.707396099765
 H   -2.247688896205    2.185446678684    1.711444237628
 H   -2.582997941356   -0.358403805052    1.684757709288
 K   -1.661242279402    0.125459440563   -5.907581338138
