16

 N   -1.679419984736    0.101575131912    1.781922453108
 C   -0.447294252469   -0.528715148096    1.782877413416
 N   -0.177153316343   -1.849600623064    1.779413224469
 C    1.150975852120   -2.067794515814    1.794980653132
 H    1.464784135090   -3.114473248304    1.798360223823
 N    2.163325295161   -1.159813558673    1.808951923407
 C    1.851108551254    0.151007524576    1.804305519507
 N    2.858735506056    1.075506161881    1.762483682576
 H    3.790187043443    0.744976053129    1.984941616709
 H    2.625998000029    2.035476916920    1.987293928016
 C    0.485607710380    0.527701378443    1.795534431792
 N   -0.137921600811    1.766667079073    1.805412640810
 C   -1.437847087968    1.458587690712    1.796957787652
 H   -2.247900616755    2.185168491814    1.801005925515
 H   -2.583209661906   -0.358681991922    1.774319397175
 K   -1.660508421805    0.126423681155   -6.218016603059
