16

 N   -1.679684635424    0.101227398323    1.893874562967
 C   -0.447558903157   -0.529062881685    1.894829523275
 N   -0.177417967031   -1.849948356653    1.891365334328
 C    1.150711201432   -2.068142249403    1.906932762991
 H    1.464519484402   -3.114820981893    1.910312333682
 N    2.163060644473   -1.160161292262    1.920904033266
 C    1.850843900566    0.150659790987    1.916257629366
 N    2.858470855368    1.075158428292    1.874435792435
 H    3.789922392755    0.744628319540    2.096893726568
 H    2.625733349341    2.035129183331    2.099246037875
 C    0.485343059692    0.527353644854    1.907486541651
 N   -0.138186251499    1.766319345484    1.917364750669
 C   -1.438111738656    1.458239957123    1.908909897511
 H   -2.248165267443    2.184820758225    1.912958035374
 H   -2.583474312594   -0.359029725511    1.886271507034
 K   -1.659591099809    0.127628981894   -6.606060684210
