13

 C    2.520745174466    0.899444079123    0.000000000000
 H    2.054125174466    1.891611079123    0.000000000000
 H    3.157894174466    0.795027079123    0.892506000000
 H    3.157894174466    0.795027079123   -0.892506000000
 C    1.422570174466   -0.151640920877    0.000000000000
 O    0.216407174466    0.126413079123    0.000000000000
 N    1.853499174466   -1.451789920877    0.000000000000
 H    2.845676174466   -1.645690920877    0.000000000000
 C    0.895164174466   -2.550317920877    0.000000000000
 H    0.251099174466   -2.501838920877    0.890708000000
 H    0.251099174466   -2.501838920877   -0.890708000000
 H    1.448390174466   -3.498742920877    0.000000000000
CS   -0.758035559642    0.351049135767    0.000000000000
