13

 C    2.583626255211    0.884948247278    0.000000000000
 H    2.117006255211    1.877115247278    0.000000000000
 H    3.220775255211    0.780531247278    0.892506000000
 H    3.220775255211    0.780531247278   -0.892506000000
 C    1.485451255211   -0.166136752722    0.000000000000
 O    0.279288255211    0.111917247278    0.000000000000
 N    1.916380255211   -1.466285752722    0.000000000000
 H    2.908557255211   -1.660186752722    0.000000000000
 C    0.958045255211   -2.564813752722    0.000000000000
 H    0.313980255211   -2.516334752722    0.890708000000
 H    0.313980255211   -2.516334752722   -0.890708000000
 H    1.511271255211   -3.513238752722    0.000000000000
CS   -0.792598752307    0.359016909586    0.000000000000
