13

 C    2.646507335957    0.870452415433    0.000000000000
 H    2.179887335957    1.862619415433    0.000000000000
 H    3.283656335957    0.766035415433    0.892506000000
 H    3.283656335957    0.766035415433   -0.892506000000
 C    1.548332335957   -0.180632584567    0.000000000000
 O    0.342169335957    0.097421415433    0.000000000000
 N    1.979261335957   -1.480781584567    0.000000000000
 H    2.971438335957   -1.674682584567    0.000000000000
 C    1.020926335957   -2.579309584567    0.000000000000
 H    0.376861335957   -2.530830584567    0.890708000000
 H    0.376861335957   -2.530830584567   -0.890708000000
 H    1.574152335957   -3.527734584567    0.000000000000
CS   -0.827161944972    0.366984683405    0.000000000000
