13

 C    2.772269497449    0.841460751743    0.000000000000
 H    2.305649497449    1.833627751743    0.000000000000
 H    3.409418497449    0.737043751743    0.892506000000
 H    3.409418497449    0.737043751743   -0.892506000000
 C    1.674094497449   -0.209624248257    0.000000000000
 O    0.467931497449    0.068429751743    0.000000000000
 N    2.105023497449   -1.509773248257    0.000000000000
 H    3.097200497449   -1.703674248257    0.000000000000
 C    1.146688497449   -2.608301248257    0.000000000000
 H    0.502623497449   -2.559822248257    0.890708000000
 H    0.502623497449   -2.559822248257   -0.890708000000
 H    1.699914497449   -3.556726248257    0.000000000000
CS   -0.896288330302    0.382920231044    0.000000000000
