13

 C    2.960912739687    0.797973256207    0.000000000000
 H    2.494292739687    1.790140256207    0.000000000000
 H    3.598061739687    0.693556256207    0.892506000000
 H    3.598061739687    0.693556256207   -0.892506000000
 C    1.862737739687   -0.253111743793    0.000000000000
 O    0.656574739687    0.024942256207    0.000000000000
 N    2.293666739687   -1.553260743793    0.000000000000
 H    3.285843739687   -1.747161743793    0.000000000000
 C    1.335331739687   -2.651788743793    0.000000000000
 H    0.691266739687   -2.603309743793    0.890708000000
 H    0.691266739687   -2.603309743793   -0.890708000000
 H    1.888557739687   -3.600213743793    0.000000000000
CS   -0.999977908296    0.406823552502    0.000000000000
