13

 C    3.023793820433    0.783477424362    0.000000000000
 H    2.557173820433    1.775644424362    0.000000000000
 H    3.660942820433    0.679060424362    0.892506000000
 H    3.660942820433    0.679060424362   -0.892506000000
 C    1.925618820433   -0.267607575638    0.000000000000
 O    0.719455820433    0.010446424362    0.000000000000
 N    2.356547820433   -1.567756575638    0.000000000000
 H    3.348724820433   -1.761657575638    0.000000000000
 C    1.398212820433   -2.666284575638    0.000000000000
 H    0.754147820433   -2.617805575638    0.890708000000
 H    0.754147820433   -2.617805575638   -0.890708000000
 H    1.951438820433   -3.614709575638    0.000000000000
CS   -1.034541100961    0.414791326321    0.000000000000
