13

 C    3.086674901179    0.768981592517    0.000000000000
 H    2.620054901179    1.761148592517    0.000000000000
 H    3.723823901179    0.664564592517    0.892506000000
 H    3.723823901179    0.664564592517   -0.892506000000
 C    1.988499901179   -0.282103407483    0.000000000000
 O    0.782336901179   -0.004049407483    0.000000000000
 N    2.419428901179   -1.582252407483    0.000000000000
 H    3.411605901179   -1.776153407483    0.000000000000
 C    1.461093901179   -2.680780407483    0.000000000000
 H    0.817028901179   -2.632301407483    0.890708000000
 H    0.817028901179   -2.632301407483   -0.890708000000
 H    2.014319901179   -3.629205407483    0.000000000000
CS   -1.069104293626    0.422759100141    0.000000000000
