13

 C    3.149555981925    0.754485760672    0.000000000000
 H    2.682935981925    1.746652760672    0.000000000000
 H    3.786704981925    0.650068760672    0.892506000000
 H    3.786704981925    0.650068760672   -0.892506000000
 C    2.051380981925   -0.296599239328    0.000000000000
 O    0.845217981925   -0.018545239328    0.000000000000
 N    2.482309981925   -1.596748239328    0.000000000000
 H    3.474486981925   -1.790649239328    0.000000000000
 C    1.523974981925   -2.695276239328    0.000000000000
 H    0.879909981925   -2.646797239328    0.890708000000
 H    0.879909981925   -2.646797239328   -0.890708000000
 H    2.077200981925   -3.643701239328    0.000000000000
CS   -1.103667486291    0.430726873960    0.000000000000
