13

 C    3.212437062671    0.739989928827    0.000000000000
 H    2.745817062671    1.732156928827    0.000000000000
 H    3.849586062671    0.635572928827    0.892506000000
 H    3.849586062671    0.635572928827   -0.892506000000
 C    2.114262062671   -0.311095071173    0.000000000000
 O    0.908099062671   -0.033041071173    0.000000000000
 N    2.545191062671   -1.611244071173    0.000000000000
 H    3.537368062671   -1.805145071173    0.000000000000
 C    1.586856062671   -2.709772071173    0.000000000000
 H    0.942791062671   -2.661293071173    0.890708000000
 H    0.942791062671   -2.661293071173   -0.890708000000
 H    2.140082062671   -3.658197071173    0.000000000000
CS   -1.138230678956    0.438694647779    0.000000000000
