13

 C    3.401080304908    0.696502433292    0.000000000000
 H    2.934460304908    1.688669433292    0.000000000000
 H    4.038229304908    0.592085433292    0.892506000000
 H    4.038229304908    0.592085433292   -0.892506000000
 C    2.302905304908   -0.354582566708    0.000000000000
 O    1.096742304908   -0.076528566708    0.000000000000
 N    2.733834304908   -1.654731566708    0.000000000000
 H    3.726011304908   -1.848632566708    0.000000000000
 C    1.775499304908   -2.753259566708    0.000000000000
 H    1.131434304908   -2.704780566708    0.890708000000
 H    1.131434304908   -2.704780566708   -0.890708000000
 H    2.328725304908   -3.701684566708    0.000000000000
CS   -1.241920256950    0.462597969237    0.000000000000
