13

 C    3.652604627892    0.638519105912    0.000000000000
 H    3.185984627892    1.630686105912    0.000000000000
 H    4.289753627892    0.534102105912    0.892506000000
 H    4.289753627892    0.534102105912   -0.892506000000
 C    2.554429627892   -0.412565894088    0.000000000000
 O    1.348266627892   -0.134511894088    0.000000000000
 N    2.985358627892   -1.712714894088    0.000000000000
 H    3.977535627892   -1.906615894088    0.000000000000
 C    2.027023627892   -2.811242894088    0.000000000000
 H    1.382958627892   -2.762763894088    0.890708000000
 H    1.382958627892   -2.762763894088   -0.890708000000
 H    2.580249627892   -3.759667894088    0.000000000000
CS   -1.380173027610    0.494469064514    0.000000000000
