13

 C    3.841247870130    0.595031610377    0.000000000000
 H    3.374627870130    1.587198610377    0.000000000000
 H    4.478396870130    0.490614610377    0.892506000000
 H    4.478396870130    0.490614610377   -0.892506000000
 C    2.743072870130   -0.456053389623    0.000000000000
 O    1.536909870130   -0.177999389623    0.000000000000
 N    3.174001870130   -1.756202389623    0.000000000000
 H    4.166178870130   -1.950103389623    0.000000000000
 C    2.215666870130   -2.854730389623    0.000000000000
 H    1.571601870130   -2.806251389623    0.890708000000
 H    1.571601870130   -2.806251389623   -0.890708000000
 H    2.768892870130   -3.803155389623    0.000000000000
CS   -1.483862605605    0.518372385972    0.000000000000
