13

 C    3.904128950876    0.580535778532    0.000000000000
 H    3.437508950876    1.572702778532    0.000000000000
 H    4.541277950876    0.476118778532    0.892506000000
 H    4.541277950876    0.476118778532   -0.892506000000
 C    2.805953950876   -0.470549221468    0.000000000000
 O    1.599790950876   -0.192495221468    0.000000000000
 N    3.236882950876   -1.770698221468    0.000000000000
 H    4.229059950876   -1.964599221468    0.000000000000
 C    2.278547950876   -2.869226221468    0.000000000000
 H    1.634482950876   -2.820747221468    0.890708000000
 H    1.634482950876   -2.820747221468   -0.890708000000
 H    2.831773950876   -3.817651221468    0.000000000000
CS   -1.518425798269    0.526340159792    0.000000000000
