13

 C    4.029891112367    0.551544114842    0.000000000000
 H    3.563271112367    1.543711114842    0.000000000000
 H    4.667040112367    0.447127114842    0.892506000000
 H    4.667040112367    0.447127114842   -0.892506000000
 C    2.931716112367   -0.499540885158    0.000000000000
 O    1.725553112367   -0.221486885158    0.000000000000
 N    3.362645112367   -1.799689885158    0.000000000000
 H    4.354822112367   -1.993590885158    0.000000000000
 C    2.404310112367   -2.898217885158    0.000000000000
 H    1.760245112367   -2.849738885158    0.890708000000
 H    1.760245112367   -2.849738885158   -0.890708000000
 H    2.957536112367   -3.846642885158    0.000000000000
CS   -1.587552183599    0.542275707430    0.000000000000
