13

 C    4.092772193113    0.537048282997    0.000000000000
 H    3.626152193113    1.529215282997    0.000000000000
 H    4.729921193113    0.432631282997    0.892506000000
 H    4.729921193113    0.432631282997   -0.892506000000
 C    2.994597193113   -0.514036717003    0.000000000000
 O    1.788434193113   -0.235982717003    0.000000000000
 N    3.425526193113   -1.814185717003    0.000000000000
 H    4.417703193113   -2.008086717003    0.000000000000
 C    2.467191193113   -2.912713717003    0.000000000000
 H    1.823126193113   -2.864234717003    0.890708000000
 H    1.823126193113   -2.864234717003   -0.890708000000
 H    3.020417193113   -3.861138717003    0.000000000000
CS   -1.622115376264    0.550243481250    0.000000000000
