13

 C    4.155653273859    0.522552451151    0.000000000000
 H    3.689033273859    1.514719451151    0.000000000000
 H    4.792802273859    0.418135451151    0.892506000000
 H    4.792802273859    0.418135451151   -0.892506000000
 C    3.057478273859   -0.528532548849    0.000000000000
 O    1.851315273859   -0.250478548849    0.000000000000
 N    3.488407273859   -1.828681548849    0.000000000000
 H    4.480584273859   -2.022582548849    0.000000000000
 C    2.530072273859   -2.927209548849    0.000000000000
 H    1.886007273859   -2.878730548849    0.890708000000
 H    1.886007273859   -2.878730548849   -0.890708000000
 H    3.083298273859   -3.875634548849    0.000000000000
CS   -1.656678568929    0.558211255069    0.000000000000
