13

 C    4.595820839081    0.421081628236    0.000000000000
 H    4.129200839081    1.413248628236    0.000000000000
 H    5.232969839081    0.316664628236    0.892506000000
 H    5.232969839081    0.316664628236   -0.892506000000
 C    3.497645839081   -0.630003371764    0.000000000000
 O    2.291482839081   -0.351949371764    0.000000000000
 N    3.928574839081   -1.930152371764    0.000000000000
 H    4.920751839081   -2.124053371764    0.000000000000
 C    2.970239839081   -3.028680371764    0.000000000000
 H    2.326174839081   -2.980201371764    0.890708000000
 H    2.326174839081   -2.980201371764   -0.890708000000
 H    3.523465839081   -3.977105371764    0.000000000000
CS   -1.898620917583    0.613985671804    0.000000000000
