13

 C    4.658701919827    0.406585796391    0.000000000000
 H    4.192081919827    1.398752796391    0.000000000000
 H    5.295850919827    0.302168796391    0.892506000000
 H    5.295850919827    0.302168796391   -0.892506000000
 C    3.560526919827   -0.644499203609    0.000000000000
 O    2.354363919827   -0.366445203609    0.000000000000
 N    3.991455919827   -1.944648203609    0.000000000000
 H    4.983632919827   -2.138549203609    0.000000000000
 C    3.033120919827   -3.043176203609    0.000000000000
 H    2.389055919827   -2.994697203609    0.890708000000
 H    2.389055919827   -2.994697203609   -0.890708000000
 H    3.586346919827   -3.991601203609    0.000000000000
CS   -1.933184110248    0.621953445624    0.000000000000
