13

 C    4.847345162064    0.363098300856    0.000000000000
 H    4.380725162064    1.355265300856    0.000000000000
 H    5.484494162064    0.258681300856    0.892506000000
 H    5.484494162064    0.258681300856   -0.892506000000
 C    3.749170162064   -0.687986699144    0.000000000000
 O    2.543007162064   -0.409932699144    0.000000000000
 N    4.180099162064   -1.988135699144    0.000000000000
 H    5.172276162064   -2.182036699144    0.000000000000
 C    3.221764162064   -3.086663699144    0.000000000000
 H    2.577699162064   -3.038184699144    0.890708000000
 H    2.577699162064   -3.038184699144   -0.890708000000
 H    3.774990162064   -4.035088699144    0.000000000000
CS   -2.036873688242    0.645856767082    0.000000000000
