13

 C    4.910226242810    0.348602469011    0.000000000000
 H    4.443606242810    1.340769469011    0.000000000000
 H    5.547375242810    0.244185469011    0.892506000000
 H    5.547375242810    0.244185469011   -0.892506000000
 C    3.812051242810   -0.702482530989    0.000000000000
 O    2.605888242810   -0.424428530989    0.000000000000
 N    4.242980242810   -2.002631530989    0.000000000000
 H    5.235157242810   -2.196532530989    0.000000000000
 C    3.284645242810   -3.101159530989    0.000000000000
 H    2.640580242810   -3.052680530989    0.890708000000
 H    2.640580242810   -3.052680530989   -0.890708000000
 H    3.837871242810   -4.049584530989    0.000000000000
CS   -2.071436880907    0.653824540901    0.000000000000
