13

 C    4.973107323556    0.334106637166    0.000000000000
 H    4.506487323556    1.326273637166    0.000000000000
 H    5.610256323556    0.229689637166    0.892506000000
 H    5.610256323556    0.229689637166   -0.892506000000
 C    3.874932323556   -0.716978362834    0.000000000000
 O    2.668769323556   -0.438924362834    0.000000000000
 N    4.305861323556   -2.017127362834    0.000000000000
 H    5.298038323556   -2.211028362834    0.000000000000
 C    3.347526323556   -3.115655362834    0.000000000000
 H    2.703461323556   -3.067176362834    0.890708000000
 H    2.703461323556   -3.067176362834   -0.890708000000
 H    3.900752323556   -4.064080362834    0.000000000000
CS   -2.106000073572    0.661792314720    0.000000000000
