13

 C    5.035988404302    0.319610805321    0.000000000000
 H    4.569368404302    1.311777805321    0.000000000000
 H    5.673137404302    0.215193805321    0.892506000000
 H    5.673137404302    0.215193805321   -0.892506000000
 C    3.937813404302   -0.731474194679    0.000000000000
 O    2.731650404302   -0.453420194679    0.000000000000
 N    4.368742404302   -2.031623194679    0.000000000000
 H    5.360919404302   -2.225524194679    0.000000000000
 C    3.410407404302   -3.130151194679    0.000000000000
 H    2.766342404302   -3.081672194679    0.890708000000
 H    2.766342404302   -3.081672194679   -0.890708000000
 H    3.963633404302   -4.078576194679    0.000000000000
CS   -2.140563266237    0.669760088540    0.000000000000
