13

 C    5.287512727286    0.261627477941    0.000000000000
 H    4.820892727286    1.253794477941    0.000000000000
 H    5.924661727286    0.157210477941    0.892506000000
 H    5.924661727286    0.157210477941   -0.892506000000
 C    4.189337727286   -0.789457522059    0.000000000000
 O    2.983174727286   -0.511403522059    0.000000000000
 N    4.620266727286   -2.089606522059    0.000000000000
 H    5.612443727286   -2.283507522059    0.000000000000
 C    3.661931727286   -3.188134522059    0.000000000000
 H    3.017866727286   -3.139655522059    0.890708000000
 H    3.017866727286   -3.139655522059   -0.890708000000
 H    4.215157727286   -4.136559522059    0.000000000000
CS   -2.278816036897    0.701631183817    0.000000000000
