13

 C    5.350393808032    0.247131646095    0.000000000000
 H    4.883773808032    1.239298646095    0.000000000000
 H    5.987542808032    0.142714646095    0.892506000000
 H    5.987542808032    0.142714646095   -0.892506000000
 C    4.252218808032   -0.803953353905    0.000000000000
 O    3.046055808032   -0.525899353905    0.000000000000
 N    4.683147808032   -2.104102353905    0.000000000000
 H    5.675324808032   -2.298003353905    0.000000000000
 C    3.724812808032   -3.202630353905    0.000000000000
 H    3.080747808032   -3.154151353905    0.890708000000
 H    3.080747808032   -3.154151353905   -0.890708000000
 H    4.278038808032   -4.151055353905    0.000000000000
CS   -2.313379229561    0.709598957636    0.000000000000
