13

 C    5.413274888778    0.232635814250    0.000000000000
 H    4.946654888778    1.224802814250    0.000000000000
 H    6.050423888778    0.128218814250    0.892506000000
 H    6.050423888778    0.128218814250   -0.892506000000
 C    4.315099888778   -0.818449185750    0.000000000000
 O    3.108936888778   -0.540395185750    0.000000000000
 N    4.746028888778   -2.118598185750    0.000000000000
 H    5.738205888778   -2.312499185750    0.000000000000
 C    3.787693888778   -3.217126185750    0.000000000000
 H    3.143628888778   -3.168647185750    0.890708000000
 H    3.143628888778   -3.168647185750   -0.890708000000
 H    4.340919888778   -4.165551185750    0.000000000000
CS   -2.347942422226    0.717566731456    0.000000000000
