13

 C    5.539037050269    0.203644150560    0.000000000000
 H    5.072417050269    1.195811150560    0.000000000000
 H    6.176186050269    0.099227150560    0.892506000000
 H    6.176186050269    0.099227150560   -0.892506000000
 C    4.440862050269   -0.847440849440    0.000000000000
 O    3.234699050269   -0.569386849440    0.000000000000
 N    4.871791050269   -2.147589849440    0.000000000000
 H    5.863968050269   -2.341490849440    0.000000000000
 C    3.913456050269   -3.246117849440    0.000000000000
 H    3.269391050269   -3.197638849440    0.890708000000
 H    3.269391050269   -3.197638849440   -0.890708000000
 H    4.466682050269   -4.194542849440    0.000000000000
CS   -2.417068807556    0.733502279094    0.000000000000
