13

 C    5.601918131015    0.189148318715    0.000000000000
 H    5.135298131015    1.181315318715    0.000000000000
 H    6.239067131015    0.084731318715    0.892506000000
 H    6.239067131015    0.084731318715   -0.892506000000
 C    4.503743131015   -0.861936681285    0.000000000000
 O    3.297580131015   -0.583882681285    0.000000000000
 N    4.934672131015   -2.162085681285    0.000000000000
 H    5.926849131015   -2.355986681285    0.000000000000
 C    3.976337131015   -3.260613681285    0.000000000000
 H    3.332272131015   -3.212134681285    0.890708000000
 H    3.332272131015   -3.212134681285   -0.890708000000
 H    4.529563131015   -4.209038681285    0.000000000000
CS   -2.451632000221    0.741470052913    0.000000000000
