13

 C    6.104966776983    0.073181663955    0.000000000000
 H    5.638346776983    1.065348663955    0.000000000000
 H    6.742115776983   -0.031235336045    0.892506000000
 H    6.742115776983   -0.031235336045   -0.892506000000
 C    5.006791776983   -0.977903336045    0.000000000000
 O    3.800628776983   -0.699849336045    0.000000000000
 N    5.437720776983   -2.278052336045    0.000000000000
 H    6.429897776983   -2.471953336045    0.000000000000
 C    4.479385776983   -3.376580336045    0.000000000000
 H    3.835320776983   -3.328101336045    0.890708000000
 H    3.835320776983   -3.328101336045   -0.890708000000
 H    5.032611776983   -4.325005336045    0.000000000000
CS   -2.728137541540    0.805212243468    0.000000000000
