13

 C    6.356491099966    0.015198336575    0.000000000000
 H    5.889871099966    1.007365336575    0.000000000000
 H    6.993640099966   -0.089218663425    0.892506000000
 H    6.993640099966   -0.089218663425   -0.892506000000
 C    5.258316099966   -1.035886663425    0.000000000000
 O    4.052153099966   -0.757832663425    0.000000000000
 N    5.689245099966   -2.336035663425    0.000000000000
 H    6.681422099966   -2.529936663425    0.000000000000
 C    4.730910099966   -3.434563663425    0.000000000000
 H    4.086845099966   -3.386084663425    0.890708000000
 H    4.086845099966   -3.386084663425   -0.890708000000
 H    5.284136099966   -4.382988663425    0.000000000000
CS   -2.866390312199    0.837083338745    0.000000000000
