13

 C    6.419372180712    0.000702504730    0.000000000000
 H    5.952752180712    0.992869504730    0.000000000000
 H    7.056521180712   -0.103714495270    0.892506000000
 H    7.056521180712   -0.103714495270   -0.892506000000
 C    5.321197180712   -1.050382495270    0.000000000000
 O    4.115034180712   -0.772328495270    0.000000000000
 N    5.752126180712   -2.350531495270    0.000000000000
 H    6.744303180712   -2.544432495270    0.000000000000
 C    4.793791180712   -3.449059495270    0.000000000000
 H    4.149726180712   -3.400580495270    0.890708000000
 H    4.149726180712   -3.400580495270   -0.890708000000
 H    5.347017180712   -4.397484495270    0.000000000000
CS   -2.900953504864    0.845051112565    0.000000000000
