13

 C    6.796658665188   -0.086272486341    0.000000000000
 H    6.330038665188    0.905894513659    0.000000000000
 H    7.433807665188   -0.190689486341    0.892506000000
 H    7.433807665188   -0.190689486341   -0.892506000000
 C    5.698483665188   -1.137357486341    0.000000000000
 O    4.492320665188   -0.859303486341    0.000000000000
 N    6.129412665188   -2.437506486341    0.000000000000
 H    7.121589665188   -2.631407486341    0.000000000000
 C    5.171077665188   -3.536034486341    0.000000000000
 H    4.527012665188   -3.487555486341    0.890708000000
 H    4.527012665188   -3.487555486341   -0.890708000000
 H    5.724303665188   -4.484459486341    0.000000000000
CS   -3.108332660853    0.892857755481    0.000000000000
