13

 C    6.859539745934   -0.100768318186    0.000000000000
 H    6.392919745934    0.891398681814    0.000000000000
 H    7.496688745934   -0.205185318186    0.892506000000
 H    7.496688745934   -0.205185318186   -0.892506000000
 C    5.761364745934   -1.151853318186    0.000000000000
 O    4.555201745934   -0.873799318186    0.000000000000
 N    6.192293745934   -2.452002318186    0.000000000000
 H    7.184470745934   -2.645903318186    0.000000000000
 C    5.233958745934   -3.550530318186    0.000000000000
 H    4.589893745934   -3.502051318186    0.890708000000
 H    4.589893745934   -3.502051318186   -0.890708000000
 H    5.787184745934   -4.498955318186    0.000000000000
CS   -3.142895853518    0.900825529300    0.000000000000
