13

 C    7.048182988171   -0.144255813721    0.000000000000
 H    6.581562988171    0.847911186279    0.000000000000
 H    7.685331988171   -0.248672813721    0.892506000000
 H    7.685331988171   -0.248672813721   -0.892506000000
 C    5.950007988171   -1.195340813721    0.000000000000
 O    4.743844988171   -0.917286813721    0.000000000000
 N    6.380936988171   -2.495489813721    0.000000000000
 H    7.373113988171   -2.689390813721    0.000000000000
 C    5.422601988171   -3.594017813721    0.000000000000
 H    4.778536988171   -3.545538813721    0.890708000000
 H    4.778536988171   -3.545538813721   -0.890708000000
 H    5.975827988171   -4.542442813721    0.000000000000
CS   -3.246585431513    0.924728850758    0.000000000000
