13

 C    7.173945149663   -0.173247477411    0.000000000000
 H    6.707325149663    0.818919522589    0.000000000000
 H    7.811094149663   -0.277664477411    0.892506000000
 H    7.811094149663   -0.277664477411   -0.892506000000
 C    6.075770149663   -1.224332477411    0.000000000000
 O    4.869607149663   -0.946278477411    0.000000000000
 N    6.506699149663   -2.524481477411    0.000000000000
 H    7.498876149663   -2.718382477411    0.000000000000
 C    5.548364149663   -3.623009477411    0.000000000000
 H    4.904299149663   -3.574530477411    0.890708000000
 H    4.904299149663   -3.574530477411   -0.890708000000
 H    6.101590149663   -4.571434477411    0.000000000000
CS   -3.315711816843    0.940664398397    0.000000000000
