13

 C    7.236826230409   -0.187743309256    0.000000000000
 H    6.770206230409    0.804423690744    0.000000000000
 H    7.873975230409   -0.292160309256    0.892506000000
 H    7.873975230409   -0.292160309256   -0.892506000000
 C    6.138651230409   -1.238828309256    0.000000000000
 O    4.932488230409   -0.960774309256    0.000000000000
 N    6.569580230409   -2.538977309256    0.000000000000
 H    7.561757230409   -2.732878309256    0.000000000000
 C    5.611245230409   -3.637505309256    0.000000000000
 H    4.967180230409   -3.589026309256    0.890708000000
 H    4.967180230409   -3.589026309256   -0.890708000000
 H    6.164471230409   -4.585930309256    0.000000000000
CS   -3.350275009507    0.948632172216    0.000000000000
