13

 C    7.299707311155   -0.202239141101    0.000000000000
 H    6.833087311155    0.789927858899    0.000000000000
 H    7.936856311155   -0.306656141101    0.892506000000
 H    7.936856311155   -0.306656141101   -0.892506000000
 C    6.201532311155   -1.253324141101    0.000000000000
 O    4.995369311155   -0.975270141101    0.000000000000
 N    6.632461311155   -2.553473141101    0.000000000000
 H    7.624638311155   -2.747374141101    0.000000000000
 C    5.674126311155   -3.652001141101    0.000000000000
 H    5.030061311155   -3.603522141101    0.890708000000
 H    5.030061311155   -3.603522141101   -0.890708000000
 H    6.227352311155   -4.600426141101    0.000000000000
CS   -3.384838202172    0.956599946035    0.000000000000
