13

 C    7.488350553393   -0.245726636636    0.000000000000
 H    7.021730553393    0.746440363364    0.000000000000
 H    8.125499553393   -0.350143636636    0.892506000000
 H    8.125499553393   -0.350143636636   -0.892506000000
 C    6.390175553393   -1.296811636636    0.000000000000
 O    5.184012553393   -1.018757636636    0.000000000000
 N    6.821104553393   -2.596960636636    0.000000000000
 H    7.813281553393   -2.790861636636    0.000000000000
 C    5.862769553393   -3.695488636636    0.000000000000
 H    5.218704553393   -3.647009636636    0.890708000000
 H    5.218704553393   -3.647009636636   -0.890708000000
 H    6.415995553393   -4.643913636636    0.000000000000
CS   -3.488527780167    0.980503267493    0.000000000000
