13

 C    7.614112714885   -0.274718300326    0.000000000000
 H    7.147492714885    0.717448699674    0.000000000000
 H    8.251261714885   -0.379135300326    0.892506000000
 H    8.251261714885   -0.379135300326   -0.892506000000
 C    6.515937714885   -1.325803300326    0.000000000000
 O    5.309774714885   -1.047749300326    0.000000000000
 N    6.946866714885   -2.625952300326    0.000000000000
 H    7.939043714885   -2.819853300326    0.000000000000
 C    5.988531714885   -3.724480300326    0.000000000000
 H    5.344466714885   -3.676001300326    0.890708000000
 H    5.344466714885   -3.676001300326   -0.890708000000
 H    6.541757714885   -4.672905300326    0.000000000000
CS   -3.557654165497    0.996438815132    0.000000000000
