13

 C    7.802755957122   -0.318205795862    0.000000000000
 H    7.336135957122    0.673961204138    0.000000000000
 H    8.439904957122   -0.422622795862    0.892506000000
 H    8.439904957122   -0.422622795862   -0.892506000000
 C    6.704580957122   -1.369290795862    0.000000000000
 O    5.498417957122   -1.091236795862    0.000000000000
 N    7.135509957122   -2.669439795862    0.000000000000
 H    8.127686957122   -2.863340795862    0.000000000000
 C    6.177174957122   -3.767967795862    0.000000000000
 H    5.533109957122   -3.719488795862    0.890708000000
 H    5.533109957122   -3.719488795862   -0.890708000000
 H    6.730400957122   -4.716392795862    0.000000000000
CS   -3.661343743491    1.020342136590    0.000000000000
