13

 C    7.865637037868   -0.332701627707    0.000000000000
 H    7.399017037868    0.659465372293    0.000000000000
 H    8.502786037868   -0.437118627707    0.892506000000
 H    8.502786037868   -0.437118627707   -0.892506000000
 C    6.767462037868   -1.383786627707    0.000000000000
 O    5.561299037868   -1.105732627707    0.000000000000
 N    7.198391037868   -2.683935627707    0.000000000000
 H    8.190568037868   -2.877836627707    0.000000000000
 C    6.240056037868   -3.782463627707    0.000000000000
 H    5.595991037868   -3.733984627707    0.890708000000
 H    5.595991037868   -3.733984627707   -0.890708000000
 H    6.793282037868   -4.730888627707    0.000000000000
CS   -3.695906936156    1.028309910409    0.000000000000
