13

 C    7.991399199360   -0.361693291397    0.000000000000
 H    7.524779199360    0.630473708603    0.000000000000
 H    8.628548199360   -0.466110291397    0.892506000000
 H    8.628548199360   -0.466110291397   -0.892506000000
 C    6.893224199360   -1.412778291397    0.000000000000
 O    5.687061199360   -1.134724291397    0.000000000000
 N    7.324153199360   -2.712927291397    0.000000000000
 H    8.316330199360   -2.906828291397    0.000000000000
 C    6.365818199360   -3.811455291397    0.000000000000
 H    5.721753199360   -3.762976291397    0.890708000000
 H    5.721753199360   -3.762976291397   -0.890708000000
 H    6.919044199360   -4.759880291397    0.000000000000
CS   -3.765033321486    1.044245458048    0.000000000000
