13

 C    8.054280280106   -0.376189123242    0.000000000000
 H    7.587660280106    0.615977876758    0.000000000000
 H    8.691429280106   -0.480606123242    0.892506000000
 H    8.691429280106   -0.480606123242   -0.892506000000
 C    6.956105280106   -1.427274123242    0.000000000000
 O    5.749942280106   -1.149220123242    0.000000000000
 N    7.387034280106   -2.727423123242    0.000000000000
 H    8.379211280106   -2.921324123242    0.000000000000
 C    6.428699280106   -3.825951123242    0.000000000000
 H    5.784634280106   -3.777472123242    0.890708000000
 H    5.784634280106   -3.777472123242   -0.890708000000
 H    6.981925280106   -4.774376123242    0.000000000000
CS   -3.799596514151    1.052213231867    0.000000000000
