13

 C    8.117161360852   -0.390684955087    0.000000000000
 H    7.650541360852    0.601482044913    0.000000000000
 H    8.754310360852   -0.495101955087    0.892506000000
 H    8.754310360852   -0.495101955087   -0.892506000000
 C    7.018986360852   -1.441769955087    0.000000000000
 O    5.812823360852   -1.163715955087    0.000000000000
 N    7.449915360852   -2.741918955087    0.000000000000
 H    8.442092360852   -2.935819955087    0.000000000000
 C    6.491580360852   -3.840446955087    0.000000000000
 H    5.847515360852   -3.791967955087    0.890708000000
 H    5.847515360852   -3.791967955087   -0.890708000000
 H    7.044806360852   -4.788871955087    0.000000000000
CS   -3.834159706816    1.060181005686    0.000000000000
