14

 N    1.298698946428    1.459429444603   -0.005149159848
 C    0.213252003525    2.282188414431   -0.002007288627
 H    0.404772843407    3.357245386930   -0.004511887169
 C    1.216835225746    0.040158982877   -0.004131490964
 O    2.260578473064   -0.613082907184   -0.006612332276
 N   -0.057002862935   -0.501980648716    0.006481743166
 C   -1.114688975748    0.299371382159    0.003988698338
 N   -2.346682092204   -0.304427646921   -0.041417124871
 H   -2.355616560525   -1.304121533432    0.128153483694
 H   -3.165259836407    0.222000672479    0.233482999926
 C   -1.046106977314    1.740748221354    0.000505264672
 H   -1.934630692999    2.372065812598   -0.008976689355
 H    2.242639069355    1.834077657045   -0.008455056076
 K   -0.181459519353   -1.494202890504    0.008840466258
