14

 N    1.308397081161    1.536747165189   -0.005332960498
 C    0.222950138258    2.359506135017   -0.002191089277
 H    0.414470978140    3.434563107516   -0.004695687819
 C    1.226533360479    0.117476703463   -0.004315291614
 O    2.270276607797   -0.535765186598   -0.006796132926
 N   -0.047304728202   -0.424662928130    0.006297942516
 C   -1.104990841015    0.376689102745    0.003804897688
 N   -2.336983957471   -0.227109926335   -0.041600925521
 H   -2.345918425792   -1.226803812846    0.127969683044
 H   -3.155561701674    0.299318393065    0.233299199276
 C   -1.036408842581    1.818065941940    0.000321464022
 H   -1.924932558266    2.449383533184   -0.009160490005
 H    2.252337204088    1.911395377631   -0.008638856726
 K   -0.209098381546   -1.714551842454    0.009364282535
