14

 N    1.311629792739    1.562519738718   -0.005394227382
 C    0.226182849836    2.385278708546   -0.002252356161
 H    0.417703689718    3.460335681045   -0.004756954703
 C    1.229766072057    0.143249276992   -0.004376558498
 O    2.273509319375   -0.509992613069   -0.006857399810
 N   -0.044072016624   -0.398890354601    0.006236675632
 C   -1.101758129437    0.402461676274    0.003743630804
 N   -2.333751245893   -0.201337352806   -0.041662192405
 H   -2.342685714214   -1.201031239317    0.127908416160
 H   -3.152328990096    0.325090966594    0.233237932392
 C   -1.033176131003    1.843838515469    0.000260197138
 H   -1.921699846688    2.475156106713   -0.009221756889
 H    2.255569915666    1.937167951160   -0.008700123610
 K   -0.218311335610   -1.788001493104    0.009538887961
