14

 N    1.321327927472    1.639837459304   -0.005578028032
 C    0.235880984569    2.462596429132   -0.002436156811
 H    0.427401824451    3.537653401631   -0.004940755353
 C    1.239464206790    0.220566997578   -0.004560359148
 O    2.283207454108   -0.432674892483   -0.007041200460
 N   -0.034373881891   -0.321572634015    0.006052874982
 C   -1.092059994704    0.479779396860    0.003559830154
 N   -2.324053111160   -0.124019632220   -0.041845993055
 H   -2.332987579481   -1.123713518731    0.127724615510
 H   -3.142630855363    0.402408687180    0.233054131742
 C   -1.023477996270    1.921156236055    0.000076396488
 H   -1.912001711955    2.552473827299   -0.009405557539
 H    2.265268050399    2.014485671746   -0.008883924260
 K   -0.245950197802   -2.008350445054    0.010062704239
