14

 N    1.324560639049    1.665610032833   -0.005639294915
 C    0.239113696146    2.488369002661   -0.002497423694
 H    0.430634536028    3.563425975160   -0.005002022236
 C    1.242696918367    0.246339571107   -0.004621626031
 O    2.286440165685   -0.406902318954   -0.007102467343
 N   -0.031141170314   -0.295800060486    0.005991608099
 C   -1.088827283127    0.505551970389    0.003498563271
 N   -2.320820399583   -0.098247058691   -0.041907259938
 H   -2.329754867904   -1.097940945202    0.127663348627
 H   -3.139398143786    0.428181260709    0.232992864859
 C   -1.020245284693    1.946928809584    0.000015129605
 H   -1.908769000378    2.578246400828   -0.009466824422
 H    2.268500761976    2.040258245275   -0.008945191143
 K   -0.255163151866   -2.081800095704    0.010237309665
