14

 N    1.331026062205    1.717155179890   -0.005761828682
 C    0.245579119302    2.539914149718   -0.002619957461
 H    0.437099959184    3.614971122217   -0.005124556003
 C    1.249162341523    0.297884718164   -0.004744159798
 O    2.292905588841   -0.355357171897   -0.007225001110
 N   -0.024675747158   -0.244254913429    0.005869074332
 C   -1.082361859971    0.557097117446    0.003376029504
 N   -2.314354976427   -0.046701911634   -0.042029793705
 H   -2.323289444748   -1.046395798145    0.127540814860
 H   -3.132932720630    0.479726407766    0.232870331092
 C   -1.013779861537    1.998473956641   -0.000107404162
 H   -1.902303577222    2.629791547885   -0.009589358189
 H    2.274966185132    2.091803392332   -0.009067724910
 K   -0.273589059994   -2.228699397004    0.010586520517
