14

 N    1.347189620093    1.846018047534   -0.006068163098
 C    0.261742677190    2.668777017362   -0.002926291877
 H    0.453263517072    3.743833989861   -0.005430890419
 C    1.265325899411    0.426747585808   -0.005050494214
 O    2.309069146729   -0.226494304253   -0.007531335526
 N   -0.008512189270   -0.115392045785    0.005562739916
 C   -1.066198302083    0.685959985090    0.003069695088
 N   -2.298191418539    0.082160956010   -0.042336128121
 H   -2.307125886860   -0.917532930501    0.127234480444
 H   -3.116769162742    0.608589275410    0.232563996676
 C   -0.997616303649    2.127336824285   -0.000413738578
 H   -1.886140019334    2.758654415529   -0.009895692605
 H    2.291129743020    2.220666259976   -0.009374059326
 K   -0.319653830315   -2.595947650255    0.011459547646
