14

 N    1.363353177982    1.974880915178   -0.006374497515
 C    0.277906235079    2.797639885006   -0.003232626294
 H    0.469427074961    3.872696857505   -0.005737224836
 C    1.281489457300    0.555610453452   -0.005356828631
 O    2.325232704618   -0.097631436609   -0.007837669943
 N    0.007651368619    0.013470821859    0.005256405499
 C   -1.050034744194    0.814822852734    0.002763360671
 N   -2.282027860650    0.211023823654   -0.042642462538
 H   -2.290962328971   -0.788670062857    0.126928146027
 H   -3.100605604853    0.737452143054    0.232257662259
 C   -0.981452745760    2.256199691929   -0.000720072995
 H   -1.869976461445    2.887517283173   -0.010202027022
 H    2.307293300909    2.349529127620   -0.009680393743
 K   -0.365718600636   -2.963195903505    0.012332574775
