14

 N    1.366585889559    2.000653488706   -0.006435764398
 C    0.281138946656    2.823412458534   -0.003293893177
 H    0.472659786538    3.898469431033   -0.005798491719
 C    1.284722168877    0.581383026980   -0.005418095514
 O    2.328465416195   -0.071858863081   -0.007898936826
 N    0.010884080196    0.039243395387    0.005195138616
 C   -1.046802032617    0.840595426262    0.002702093788
 N   -2.278795149073    0.236796397182   -0.042703729421
 H   -2.287729617394   -0.762897489329    0.126866879144
 H   -3.097372893276    0.763224716582    0.232196395376
 C   -0.978220034183    2.281972265457   -0.000781339878
 H   -1.866743749868    2.913289856701   -0.010263293905
 H    2.310526012486    2.375301701148   -0.009741660626
 K   -0.374931554700   -3.036645554155    0.012507180201
