14

 N    1.379516735870    2.103743782821   -0.006680831932
 C    0.294069792967    2.926502752649   -0.003538960711
 H    0.485590632849    4.001559725148   -0.006043559253
 C    1.297653015188    0.684473321095   -0.005663163048
 O    2.341396262506    0.031231431034   -0.008144004360
 N    0.023814926507    0.142333689502    0.004950071082
 C   -1.033871186306    0.943685720377    0.002457026254
 N   -2.265864302762    0.339886691297   -0.042948796955
 H   -2.274798771083   -0.659807195214    0.126621811610
 H   -3.084442046965    0.866315010697    0.231951327842
 C   -0.965289187872    2.385062559572   -0.001026407412
 H   -1.853812903557    3.016380150816   -0.010508361439
 H    2.323456858797    2.478391995263   -0.009986728160
 K   -0.411783370956   -3.330444156755    0.013205601905
