14

 N    1.385982159026    2.155288929879   -0.006803365698
 C    0.300535216123    2.978047899707   -0.003661494477
 H    0.492056056005    4.053104872206   -0.006166093019
 C    1.304118438344    0.736018468153   -0.005785696814
 O    2.347861685662    0.082776578092   -0.008266538126
 N    0.030280349663    0.193878836560    0.004827537316
 C   -1.027405763150    0.995230867435    0.002334492488
 N   -2.259398879606    0.391431838355   -0.043071330721
 H   -2.268333347927   -0.608262048156    0.126499277844
 H   -3.077976623809    0.917860157755    0.231828794076
 C   -0.958823764716    2.436607706630   -0.001148941178
 H   -1.847347480401    3.067925297874   -0.010630895205
 H    2.329922281953    2.529937142321   -0.010109261926
 K   -0.430209279084   -3.477343458055    0.013554812757
