14

 N    1.392447582181    2.206834076936   -0.006925899465
 C    0.307000639278    3.029593046764   -0.003784028244
 H    0.498521479160    4.104650019263   -0.006288626786
 C    1.310583861499    0.787563615210   -0.005908230581
 O    2.354327108817    0.134321725149   -0.008389071893
 N    0.036745772818    0.245423983617    0.004705003549
 C   -1.020940339995    1.046776014492    0.002211958721
 N   -2.252933456451    0.442976985412   -0.043193864488
 H   -2.261867924772   -0.556716901099    0.126376744077
 H   -3.071511200654    0.969405304812    0.231706260309
 C   -0.952358341561    2.488152853687   -0.001271474945
 H   -1.840882057246    3.119470444931   -0.010753428972
 H    2.336387705108    2.581482289378   -0.010231795693
 K   -0.448635187213   -3.624242759355    0.013904023608
