14

 N    1.402145716914    2.284151797523   -0.007109700115
 C    0.316698774011    3.106910767351   -0.003967828894
 H    0.508219613893    4.181967739850   -0.006472427436
 C    1.320281996232    0.864881335797   -0.006092031231
 O    2.364025243550    0.211639445736   -0.008572872543
 N    0.046443907551    0.322741704204    0.004521202899
 C   -1.011242205262    1.124093735079    0.002028158071
 N   -2.243235321718    0.520294705999   -0.043377665138
 H   -2.252169790039   -0.479399180512    0.126192943427
 H   -3.061813065921    1.046723025399    0.231522459659
 C   -0.942660206828    2.565470574274   -0.001455275595
 H   -1.831183922513    3.196788165518   -0.010937229622
 H    2.346085839841    2.658800009965   -0.010415596343
 K   -0.476274049405   -3.844591711306    0.014427839886
