14

 N    1.408611140070    2.335696944580   -0.007232233882
 C    0.323164197167    3.158455914408   -0.004090362661
 H    0.514685037049    4.233512886907   -0.006594961203
 C    1.326747419388    0.916426482854   -0.006214564998
 O    2.370490666706    0.263184592793   -0.008695406310
 N    0.052909330707    0.374286851261    0.004398669132
 C   -1.004776782106    1.175638882136    0.001905624304
 N   -2.236769898562    0.571839853056   -0.043500198905
 H   -2.245704366883   -0.427854033455    0.126070409660
 H   -3.055347642765    1.098268172456    0.231399925892
 C   -0.936194783672    2.617015721331   -0.001577809362
 H   -1.824718499357    3.248333312575   -0.011059763389
 H    2.352551262997    2.710345157022   -0.010538130110
 K   -0.494699957533   -3.991491012606    0.014777050738
