14

 N    1.411843851647    2.361469518109   -0.007293500765
 C    0.326396908744    3.184228487937   -0.004151629544
 H    0.517917748626    4.259285460436   -0.006656228086
 C    1.329980130965    0.942199056383   -0.006275831881
 O    2.373723378283    0.288957166322   -0.008756673193
 N    0.056142042284    0.400059424790    0.004337402249
 C   -1.001544070529    1.201411455665    0.001844357421
 N   -2.233537186985    0.597612426585   -0.043561465788
 H   -2.242471655306   -0.402081459926    0.126009142777
 H   -3.052114931188    1.124040745985    0.231338659009
 C   -0.932962072095    2.642788294860   -0.001639076245
 H   -1.821485787780    3.274105886104   -0.011121030272
 H    2.355783974574    2.736117730551   -0.010599396993
 K   -0.503912911597   -4.064940663256    0.014951656164
