14

 N    1.418309274803    2.413014665166   -0.007416034532
 C    0.332862331900    3.235773634994   -0.004274163311
 H    0.524383171782    4.310830607493   -0.006778761853
 C    1.336445554121    0.993744203440   -0.006398365648
 O    2.380188801439    0.340502313379   -0.008879206960
 N    0.062607465440    0.451604571847    0.004214868482
 C   -0.995078647373    1.252956602722    0.001721823654
 N   -2.227071763829    0.649157573642   -0.043683999555
 H   -2.236006232150   -0.350536312869    0.125886609010
 H   -3.045649508032    1.175585893042    0.231216125242
 C   -0.926496648939    2.694333441917   -0.001761610012
 H   -1.815020364624    3.325651033161   -0.011243564039
 H    2.362249397730    2.787662877608   -0.010721930760
 K   -0.522338819726   -4.211839964556    0.015300867015
