14

 N    1.444170967424    2.619195253396   -0.007906169598
 C    0.358724024521    3.441954223224   -0.004764298377
 H    0.550244864403    4.517011195723   -0.007268896919
 C    1.362307246742    1.199924791670   -0.006888500714
 O    2.406050494060    0.546682901609   -0.009369342026
 N    0.088469158061    0.657785160077    0.003724733416
 C   -0.969216954752    1.459137190952    0.001231688588
 N   -2.201210071208    0.855338161872   -0.044174134621
 H   -2.210144539529   -0.144355724639    0.125396473944
 H   -3.019787815411    1.381766481272    0.230725990176
 C   -0.900634956318    2.900514030147   -0.002251745078
 H   -1.789158672003    3.531831621391   -0.011733699105
 H    2.388111090351    2.993843465838   -0.011212065826
 K   -0.596042452238   -4.799437169756    0.016697710422
