14

 N    1.453869102157    2.696512973982   -0.008089970248
 C    0.368422159254    3.519271943810   -0.004948099027
 H    0.559942999136    4.594328916309   -0.007452697569
 C    1.372005381475    1.277242512256   -0.007072301364
 O    2.415748628793    0.624000622195   -0.009553142676
 N    0.098167292794    0.735102880663    0.003540932766
 C   -0.959518820019    1.536454911538    0.001047887938
 N   -2.191511936475    0.932655882458   -0.044357935271
 H   -2.200446404796   -0.067038004053    0.125212673294
 H   -3.010089680678    1.459084201858    0.230542189526
 C   -0.890936821585    2.977831750733   -0.002435545728
 H   -1.779460537270    3.609149341977   -0.011917499755
 H    2.397809225084    3.071161186424   -0.011395866476
 K   -0.623681314431   -5.019786121706    0.017221526700
