14

 N    1.457101813735    2.722285547511   -0.008151237131
 C    0.371654870832    3.545044517339   -0.005009365910
 H    0.563175710714    4.620101489838   -0.007513964452
 C    1.375238093053    1.303015085785   -0.007133568247
 O    2.418981340371    0.649773195724   -0.009614409559
 N    0.101400004372    0.760875454192    0.003479665883
 C   -0.956286108441    1.562227485067    0.000986621055
 N   -2.188279224897    0.958428455987   -0.044419202154
 H   -2.197213693218   -0.041265430524    0.125151406411
 H   -3.006856969100    1.484856775387    0.230480922643
 C   -0.887704110007    3.003604324262   -0.002496812611
 H   -1.776227825692    3.634921915506   -0.011978766638
 H    2.401041936662    3.096933759953   -0.011457133359
 K   -0.632894268495   -5.093235772356    0.017396132126
