14

 N    1.466799948468    2.799603268097   -0.008335037781
 C    0.381353005565    3.622362237925   -0.005193166560
 H    0.572873845447    4.697419210424   -0.007697765102
 C    1.384936227786    1.380332806371   -0.007317368897
 O    2.428679475104    0.727090916310   -0.009798210209
 N    0.111098139105    0.838193174778    0.003295865233
 C   -0.946587973708    1.639545205653    0.000802820405
 N   -2.178581090164    1.035746176573   -0.044603002804
 H   -2.187515558485    0.036052290062    0.124967605761
 H   -2.997158834367    1.562174495973    0.230297121993
 C   -0.878005975274    3.080922044848   -0.002680613261
 H   -1.766529690959    3.712239636092   -0.012162567288
 H    2.410740071395    3.174251480539   -0.011640934009
 K   -0.660533130687   -5.313584724307    0.017919948403
