14

 N    1.486196217934    2.954238709270   -0.008702639081
 C    0.400749275031    3.776997679098   -0.005560767860
 H    0.592270114913    4.852054651597   -0.008065366402
 C    1.404332497252    1.534968247544   -0.007684970197
 O    2.448075744570    0.881726357483   -0.010165811509
 N    0.130494408571    0.992828615951    0.002928263933
 C   -0.927191704242    1.794180646826    0.000435219105
 N   -2.159184820698    1.190381617746   -0.044970604104
 H   -2.168119289019    0.190687731235    0.124600004461
 H   -2.977762564901    1.716809937146    0.229929520693
 C   -0.858609705808    3.235557486021   -0.003048214561
 H   -1.747133421493    3.866875077265   -0.012530168588
 H    2.430136340861    3.328886921712   -0.012008535309
 K   -0.715810855072   -5.754282628207    0.018967580959
