14

 N    1.499127064245    3.057329003385   -0.008947706615
 C    0.413680121342    3.880087973213   -0.005805835394
 H    0.605200961224    4.955144945712   -0.008310433936
 C    1.417263343563    1.638058541659   -0.007930037731
 O    2.461006590881    0.984816651598   -0.010410879043
 N    0.143425254882    1.095918910066    0.002683196399
 C   -0.914260857931    1.897270940941    0.000190151571
 N   -2.146253974387    1.293471911861   -0.045215671638
 H   -2.155188442708    0.293778025350    0.124354936927
 H   -2.964831718590    1.819900231261    0.229684453159
 C   -0.845678859497    3.338647780136   -0.003293282095
 H   -1.734202575182    3.969965371380   -0.012775236122
 H    2.443067187172    3.431977215827   -0.012253602843
 K   -0.752662671328   -6.048081230807    0.019666002662
