14

 N    1.515290622134    3.186191871028   -0.009254041031
 C    0.429843679231    4.008950840856   -0.006112169810
 H    0.621364519113    5.084007813355   -0.008616768352
 C    1.433426901452    1.766921409302   -0.008236372147
 O    2.477170148770    1.113679519241   -0.010717213459
 N    0.159588812771    1.224781777709    0.002376861983
 C   -0.898097300042    2.026133808584   -0.000116182845
 N   -2.130090416498    1.422334779504   -0.045522006054
 H   -2.139024884819    0.422640892993    0.124048602511
 H   -2.948668160701    1.948763098904    0.229378118743
 C   -0.829515301608    3.467510647779   -0.003599616511
 H   -1.718039017293    4.098828239023   -0.013081570538
 H    2.459230745061    3.560840083470   -0.012559937259
 K   -0.798727441649   -6.415329484057    0.020539029792
