14

 N    1.518523333711    3.211964444557   -0.009315307915
 C    0.433076390808    4.034723414385   -0.006173436694
 H    0.624597230690    5.109780386884   -0.008678035236
 C    1.436659613029    1.792693982831   -0.008297639031
 O    2.480402860347    1.139452092770   -0.010778480343
 N    0.162821524348    1.250554351238    0.002315595099
 C   -0.894864588465    2.051906382113   -0.000177449729
 N   -2.126857704921    1.448107353033   -0.045583272938
 H   -2.135792173242    0.448413466522    0.123987335627
 H   -2.945435449124    1.974535672433    0.229316851859
 C   -0.826282590031    3.493283221308   -0.003660883395
 H   -1.714806305716    4.124600812552   -0.013142837422
 H    2.462463456638    3.586612656999   -0.012621204143
 K   -0.807940395713   -6.488779134707    0.020713635218
