14

 N    1.528221468444    3.289282165143   -0.009499108565
 C    0.442774525541    4.112041134971   -0.006357237344
 H    0.634295365423    5.187098107470   -0.008861835886
 C    1.446357747762    1.870011703417   -0.008481439681
 O    2.490100995080    1.216769813356   -0.010962280993
 N    0.172519659081    1.327872071824    0.002131794449
 C   -0.885166453732    2.129224102699   -0.000361250379
 N   -2.117159570188    1.525425073619   -0.045767073588
 H   -2.126094038509    0.525731187108    0.123803534977
 H   -2.935737314391    2.051853393019    0.229133051209
 C   -0.816584455298    3.570600941894   -0.003844684045
 H   -1.705108170983    4.201918533138   -0.013326638072
 H    2.472161591371    3.663930377585   -0.012805004793
 K   -0.835579257905   -6.709128086658    0.021237451495
