14

 N    1.547617737911    3.443917606316   -0.009866709865
 C    0.462170795008    4.266676576144   -0.006724838644
 H    0.653691634890    5.341733548643   -0.009229437186
 C    1.465754017229    2.024647144590   -0.008849040981
 O    2.509497264547    1.371405254529   -0.011329882293
 N    0.191915928548    1.482507512997    0.001764193149
 C   -0.865770184265    2.283859543872   -0.000728851679
 N   -2.097763300721    1.680060514792   -0.046134674888
 H   -2.106697769042    0.680366628281    0.123435933677
 H   -2.916341044924    2.206488834192    0.228765449909
 C   -0.797188185831    3.725236383067   -0.004212285345
 H   -1.685711901516    4.356553974311   -0.013694239372
 H    2.491557860838    3.818565818758   -0.013172606093
 K   -0.890856982290   -7.149825990558    0.022285084050
