14

 N    1.550850449488    3.469690179845   -0.009927976748
 C    0.465403506585    4.292449149673   -0.006786105527
 H    0.656924346467    5.367506122172   -0.009290704069
 C    1.468986728806    2.050419718119   -0.008910307864
 O    2.512729976124    1.397177828058   -0.011391149176
 N    0.195148640125    1.508280086526    0.001702926266
 C   -0.862537472688    2.309632117401   -0.000790118562
 N   -2.094530589144    1.705833088321   -0.046195941771
 H   -2.103465057465    0.706139201810    0.123374666794
 H   -2.913108333347    2.232261407721    0.228704183026
 C   -0.793955474254    3.751008956596   -0.004273552228
 H   -1.682479189939    4.382326547840   -0.013755506255
 H    2.494790572415    3.844338392287   -0.013233872976
 K   -0.900069936354   -7.223275641208    0.022459689476
