14

 N    1.554083161066    3.495462753373   -0.009989243631
 C    0.468636218163    4.318221723201   -0.006847372410
 H    0.660157058045    5.393278695700   -0.009351970952
 C    1.472219440384    2.076192291647   -0.008971574747
 O    2.515962687702    1.422950401586   -0.011452416059
 N    0.198381351703    1.534052660054    0.001641659383
 C   -0.859304761110    2.335404690929   -0.000851385445
 N   -2.091297877566    1.731605661849   -0.046257208654
 H   -2.100232345887    0.731911775338    0.123313399911
 H   -2.909875621769    2.258033981249    0.228642916143
 C   -0.790722762676    3.776781530124   -0.004334819111
 H   -1.679246478361    4.408099121368   -0.013816773138
 H    2.498023283993    3.870110965815   -0.013295139859
 K   -0.909282890418   -7.296725291858    0.022634294902
