14

 N    1.579944853687    3.701643341603   -0.010479378698
 C    0.494497910784    4.524402311431   -0.007337507477
 H    0.686018750666    5.599459283930   -0.009842106019
 C    1.498081133005    2.282372879877   -0.009461709814
 O    2.541824380323    1.629130989816   -0.011942551126
 N    0.224243044324    1.740233248284    0.001151524316
 C   -0.833443068489    2.541585279159   -0.001341520512
 N   -2.065436184945    1.937786250079   -0.046747343721
 H   -2.074370653266    0.938092363568    0.122823264844
 H   -2.884013929148    2.464214569479    0.228152781076
 C   -0.764861070055    3.982962118354   -0.004824954178
 H   -1.653384785740    4.614279709598   -0.014306908205
 H    2.523884976614    4.076291554045   -0.013785274926
 K   -0.982986522931   -7.884322497058    0.024031138309
