14

 N    1.586410276843    3.753188488661   -0.010601912465
 C    0.500963333940    4.575947458489   -0.007460041244
 H    0.692484173822    5.651004430988   -0.009964639786
 C    1.504546556161    2.333918026935   -0.009584243581
 O    2.548289803479    1.680676136874   -0.012065084893
 N    0.230708467480    1.791778395342    0.001028990549
 C   -0.826977645333    2.593130426217   -0.001464054279
 N   -2.058970761789    1.989331397137   -0.046869877488
 H   -2.067905230110    0.989637510626    0.122700731077
 H   -2.877548505992    2.515759716537    0.228030247309
 C   -0.758395646899    4.034507265412   -0.004947487945
 H   -1.646919362584    4.665824856656   -0.014429441972
 H    2.530350399770    4.127836701103   -0.013907808693
 K   -1.001412431059   -8.031221798358    0.024380349161
