10

 C    0.839084296891    0.772097665115    0.364132555778
 H    1.232571296891    1.785226665115    0.364352555778
 C    1.451117296891   -0.478010334885    0.364168555778
 H    2.516824296891   -0.696737334885    0.364074555778
 N   -0.516003703109    0.503129665115    0.364120555778
 H   -1.260937703109    1.189779665115    0.364374555778
 C   -0.673809703109   -0.860910334885    0.364175555778
 H   -1.651433703109   -1.336926334885    0.364049555778
 N    0.505106296891   -1.487505334885    0.364164555778
 K   -0.515548474276    0.503993446248   -0.635878967546
