10

 C    0.839034566393    0.772003303196    0.473375361756
 H    1.232521566393    1.785132303196    0.473595361756
 C    1.451067566393   -0.478104696804    0.473411361756
 H    2.516774566393   -0.696831696804    0.473317361756
 N   -0.516053433607    0.503035303196    0.473363361756
 H   -1.260987433607    1.189685303196    0.473617361756
 C   -0.673859433607   -0.861004696804    0.473418361756
 H   -1.651483433607   -1.337020696804    0.473292361756
 N    0.505056566393   -1.487599696804    0.473407361756
 K   -0.515461636125    0.504158218668   -0.826636018566
