10

 C    0.838984835894    0.771908941276    0.582618167734
 H    1.232471835894    1.785037941276    0.582838167734
 C    1.451017835894   -0.478199058724    0.582654167734
 H    2.516724835894   -0.696926058724    0.582560167734
 N   -0.516103164106    0.502940941276    0.582606167734
 H   -1.261037164106    1.189590941276    0.582860167734
 C   -0.673909164106   -0.861099058724    0.582661167734
 H   -1.651533164106   -1.337115058724    0.582535167734
 N    0.505006835894   -1.487694058724    0.582650167734
 K   -0.515374797973    0.504322991088   -1.017393069585
