10

 C    0.837592381928    0.769266807527    3.641416735111
 H    1.231079381928    1.782395807527    3.641636735111
 C    1.449625381928   -0.480841192473    3.641452735111
 H    2.515332381928   -0.699568192473    3.641358735111
 N   -0.517495618072    0.500298807527    3.641404735111
 H   -1.262429618072    1.186948807527    3.641658735111
 C   -0.675301618072   -0.863741192473    3.641459735111
 H   -1.652925618072   -1.339757192473    3.641333735111
 N    0.503614381928   -1.490336192473    3.641448735111
 K   -0.512943329743    0.508936618848   -6.358590498133
