10

 C    0.838901951729    0.771751671410    0.764689511030
 H    1.232388951729    1.784880671410    0.764909511030
 C    1.450934951729   -0.478356328590    0.764725511030
 H    2.516641951729   -0.697083328590    0.764631511030
 N   -0.516186048271    0.502783671410    0.764677511030
 H   -1.261120048271    1.189433671410    0.764931511030
 C   -0.673992048271   -0.861256328590    0.764732511030
 H   -1.651616048271   -1.337272328590    0.764606511030
 N    0.504923951729   -1.487851328590    0.764721511030
 K   -0.515230067722    0.504597611788   -1.335321487951
