10

 C    0.838885374896    0.771720217437    0.801103779689
 H    1.232372374896    1.784849217437    0.801323779689
 C    1.450918374896   -0.478387782563    0.801139779689
 H    2.516625374896   -0.697114782563    0.801045779689
 N   -0.516202625104    0.502752217437    0.801091779689
 H   -1.261136625104    1.189402217437    0.801345779689
 C   -0.674008625104   -0.861287782563    0.801146779689
 H   -1.651632625104   -1.337303782563    0.801020779689
 N    0.504907374896   -1.487882782563    0.801135779689
 K   -0.515201121671    0.504652535928   -1.398907171624
