10

 C    0.838868798063    0.771688763464    0.837518048348
 H    1.232355798063    1.784817763464    0.837738048348
 C    1.450901798063   -0.478419236536    0.837554048348
 H    2.516608798063   -0.697146236536    0.837460048348
 N   -0.516219201937    0.502720763464    0.837506048348
 H   -1.261153201937    1.189370763464    0.837760048348
 C   -0.674025201937   -0.861319236536    0.837561048348
 H   -1.651649201937   -1.337335236536    0.837435048348
 N    0.504890798063   -1.487914236536    0.837550048348
 K   -0.515172175621    0.504707460068   -1.462492855298
