10

 C    0.838819067565    0.771594401544    0.946760854326
 H    1.232306067565    1.784723401544    0.946980854326
 C    1.450852067565   -0.478513598456    0.946796854326
 H    2.516559067565   -0.697240598456    0.946702854326
 N   -0.516268932435    0.502626401544    0.946748854326
 H   -1.261202932435    1.189276401544    0.947002854326
 C   -0.674074932435   -0.861413598456    0.946803854326
 H   -1.651698932435   -1.337429598456    0.946677854326
 N    0.504841067565   -1.488008598456    0.946792854326
 K   -0.515085337470    0.504872232488   -1.653249906317
