10

 C    0.838769337066    0.771500039625    1.056003660304
 H    1.232256337066    1.784629039625    1.056223660304
 C    1.450802337066   -0.478607960375    1.056039660304
 H    2.516509337066   -0.697334960375    1.055945660304
 N   -0.516318662934    0.502532039625    1.055991660304
 H   -1.261252662934    1.189182039625    1.056245660304
 C   -0.674124662934   -0.861507960375    1.056046660304
 H   -1.651748662934   -1.337523960375    1.055920660304
 N    0.504791337066   -1.488102960375    1.056035660304
 K   -0.514998499319    0.505037004908   -1.844006957337
