10

 C    0.838703029734    0.771374223732    1.201660734941
 H    1.232190029734    1.784503223732    1.201880734941
 C    1.450736029734   -0.478733776268    1.201696734941
 H    2.516443029734   -0.697460776268    1.201602734941
 N   -0.516384970266    0.502406223732    1.201648734941
 H   -1.261318970266    1.189056223732    1.201902734941
 C   -0.674190970266   -0.861633776268    1.201703734941
 H   -1.651814970266   -1.337649776268    1.201577734941
 N    0.504725029734   -1.488228776268    1.201692734941
 K   -0.514882715117    0.505256701468   -2.098349692029
