10

 C    0.838669876068    0.771311315785    1.274489272259
 H    1.232156876068    1.784440315785    1.274709272259
 C    1.450702876068   -0.478796684215    1.274525272259
 H    2.516409876068   -0.697523684215    1.274431272259
 N   -0.516418123932    0.502343315785    1.274477272259
 H   -1.261352123932    1.188993315785    1.274731272259
 C   -0.674224123932   -0.861696684215    1.274532272259
 H   -1.651848123932   -1.337712684215    1.274406272259
 N    0.504691876068   -1.488291684215    1.274521272259
 K   -0.514824823016    0.505366549748   -2.225521059376
