10

 C    0.838620145570    0.771216953866    1.383732078237
 H    1.232107145570    1.784345953866    1.383952078237
 C    1.450653145570   -0.478891046134    1.383768078237
 H    2.516360145570   -0.697618046134    1.383674078237
 N   -0.516467854430    0.502248953866    1.383720078237
 H   -1.261401854430    1.188898953866    1.383974078237
 C   -0.674273854430   -0.861791046134    1.383775078237
 H   -1.651897854430   -1.337807046134    1.383649078237
 N    0.504642145570   -1.488386046134    1.383764078237
 K   -0.514737984865    0.505531322168   -2.416278110395
