10

 C    0.838586991904    0.771154045919    1.456560615556
 H    1.232073991904    1.784283045919    1.456780615556
 C    1.450619991904   -0.478953954081    1.456596615556
 H    2.516326991904   -0.697680954081    1.456502615556
 N   -0.516501008096    0.502186045919    1.456548615556
 H   -1.261435008096    1.188836045919    1.456802615556
 C   -0.674307008096   -0.861853954081    1.456603615556
 H   -1.651931008096   -1.337869954081    1.456477615556
 N    0.504608991904   -1.488448954081    1.456592615556
 K   -0.514680092765    0.505641170448   -2.543449477742
