10

 C    0.838570415071    0.771122591946    1.492974884215
 H    1.232057415071    1.784251591946    1.493194884215
 C    1.450603415071   -0.478985408054    1.493010884215
 H    2.516310415071   -0.697712408054    1.492916884215
 N   -0.516517584929    0.502154591946    1.492962884215
 H   -1.261451584929    1.188804591946    1.493216884215
 C   -0.674323584929   -0.861885408054    1.493017884215
 H   -1.651947584929   -1.337901408054    1.492891884215
 N    0.504592415071   -1.488480408054    1.493006884215
 K   -0.514651146714    0.505696094588   -2.607035161415
