10

 C    0.838553838238    0.771091137973    1.529389152874
 H    1.232040838238    1.784220137973    1.529609152874
 C    1.450586838238   -0.479016862027    1.529425152874
 H    2.516293838238   -0.697743862027    1.529331152874
 N   -0.516534161762    0.502123137973    1.529377152874
 H   -1.261468161762    1.188773137973    1.529631152874
 C   -0.674340161762   -0.861916862027    1.529432152874
 H   -1.651964161762   -1.337932862027    1.529306152874
 N    0.504575838238   -1.488511862027    1.529421152874
 K   -0.514622200664    0.505751018728   -2.670620845088
