10

 C    0.838520684572    0.771028230027    1.602217690193
 H    1.232007684572    1.784157230027    1.602437690193
 C    1.450553684572   -0.479079769973    1.602253690193
 H    2.516260684572   -0.697806769973    1.602159690193
 N   -0.516567315428    0.502060230027    1.602205690193
 H   -1.261501315428    1.188710230027    1.602459690193
 C   -0.674373315428   -0.861979769973    1.602260690193
 H   -1.651997315428   -1.337995769973    1.602134690193
 N    0.504542684572   -1.488574769973    1.602249690193
 K   -0.514564308563    0.505860867008   -2.797792212434
