10

 C    0.838504107739    0.770996776053    1.638631958852
 H    1.231991107739    1.784125776053    1.638851958852
 C    1.450537107739   -0.479111223947    1.638667958852
 H    2.516244107739   -0.697838223947    1.638573958852
 N   -0.516583892261    0.502028776053    1.638619958852
 H   -1.261517892261    1.188678776053    1.638873958852
 C   -0.674389892261   -0.862011223947    1.638674958852
 H   -1.652013892261   -1.338027223947    1.638548958852
 N    0.504526107739   -1.488606223947    1.638663958852
 K   -0.514535362513    0.505915791148   -2.861377896108
