10

 C    0.838487530906    0.770965322080    1.675046227511
 H    1.231974530906    1.784094322080    1.675266227511
 C    1.450520530906   -0.479142677920    1.675082227511
 H    2.516227530906   -0.697869677920    1.674988227511
 N   -0.516600469094    0.501997322080    1.675034227511
 H   -1.261534469094    1.188647322080    1.675288227511
 C   -0.674406469094   -0.862042677920    1.675089227511
 H   -1.652030469094   -1.338058677920    1.674963227511
 N    0.504509530906   -1.488637677920    1.675078227511
 K   -0.514506416462    0.505970715288   -2.924963579781
