10

 C    0.838470954073    0.770933868107    1.711460496170
 H    1.231957954073    1.784062868107    1.711680496170
 C    1.450503954073   -0.479174131893    1.711496496170
 H    2.516210954073   -0.697901131893    1.711402496170
 N   -0.516617045927    0.501965868107    1.711448496170
 H   -1.261551045927    1.188615868107    1.711702496170
 C   -0.674423045927   -0.862074131893    1.711503496170
 H   -1.652047045927   -1.338090131893    1.711377496170
 N    0.504492954073   -1.488669131893    1.711492496170
 K   -0.514477470412    0.506025639428   -2.988549263454
