10

 C    0.838454377240    0.770902414134    1.747874764830
 H    1.231941377240    1.784031414134    1.748094764830
 C    1.450487377240   -0.479205585866    1.747910764830
 H    2.516194377240   -0.697932585866    1.747816764830
 N   -0.516633622760    0.501934414134    1.747862764830
 H   -1.261567622760    1.188584414134    1.748116764830
 C   -0.674439622760   -0.862105585866    1.747917764830
 H   -1.652063622760   -1.338121585866    1.747791764830
 N    0.504476377240   -1.488700585866    1.747906764830
 K   -0.514448524362    0.506080563568   -3.052134947127
