10

 C    0.838437800407    0.770870960161    1.784289033489
 H    1.231924800407    1.783999960161    1.784509033489
 C    1.450470800407   -0.479237039839    1.784325033489
 H    2.516177800407   -0.697964039839    1.784231033489
 N   -0.516650199593    0.501902960161    1.784277033489
 H   -1.261584199593    1.188552960161    1.784531033489
 C   -0.674456199593   -0.862137039839    1.784332033489
 H   -1.652080199593   -1.338153039839    1.784206033489
 N    0.504459800407   -1.488732039839    1.784321033489
 K   -0.514419578311    0.506135487708   -3.115720630800
