10

 C    0.838421223574    0.770839506187    1.820703302148
 H    1.231908223574    1.783968506187    1.820923302148
 C    1.450454223574   -0.479268493813    1.820739302148
 H    2.516161223574   -0.697995493813    1.820645302148
 N   -0.516666776426    0.501871506187    1.820691302148
 H   -1.261600776426    1.188521506187    1.820945302148
 C   -0.674472776426   -0.862168493813    1.820746302148
 H   -1.652096776426   -1.338184493813    1.820620302148
 N    0.504443223574   -1.488763493813    1.820735302148
 K   -0.514390632261    0.506190411848   -3.179306314473
