10

 C    0.838404646741    0.770808052214    1.857117570807
 H    1.231891646741    1.783937052214    1.857337570807
 C    1.450437646741   -0.479299947786    1.857153570807
 H    2.516144646741   -0.698026947786    1.857059570807
 N   -0.516683353259    0.501840052214    1.857105570807
 H   -1.261617353259    1.188490052214    1.857359570807
 C   -0.674489353259   -0.862199947786    1.857160570807
 H   -1.652113353259   -1.338215947786    1.857034570807
 N    0.504426646741   -1.488794947786    1.857149570807
 K   -0.514361686211    0.506245335988   -3.242891998147
