10

 C    0.838288608911    0.770587874402    2.112017451422
 H    1.231775608911    1.783716874402    2.112237451422
 C    1.450321608911   -0.479520125598    2.112053451422
 H    2.516028608911   -0.698247125598    2.111959451422
 N   -0.516799391089    0.501619874402    2.112005451422
 H   -1.261733391089    1.188269874402    2.112259451422
 C   -0.674605391089   -0.862420125598    2.112060451422
 H   -1.652229391089   -1.338436125598    2.111934451422
 N    0.504310608911   -1.489015125598    2.112049451422
 K   -0.514159063858    0.506629804968   -3.687991783859
