10

 C    0.838272032078    0.770556420429    2.148431720081
 H    1.231759032078    1.783685420429    2.148651720081
 C    1.450305032078   -0.479551579571    2.148467720081
 H    2.516012032078   -0.698278579571    2.148373720081
 N   -0.516815967922    0.501588420429    2.148419720081
 H   -1.261749967922    1.188238420429    2.148673720081
 C   -0.674621967922   -0.862451579571    2.148474720081
 H   -1.652245967922   -1.338467579571    2.148348720081
 N    0.504294032078   -1.489046579571    2.148463720081
 K   -0.514130117808    0.506684729108   -3.751577467532
