10

 C    0.838255455245    0.770524966455    2.184845988741
 H    1.231742455245    1.783653966455    2.185065988741
 C    1.450288455245   -0.479583033545    2.184881988741
 H    2.515995455245   -0.698310033545    2.184787988741
 N   -0.516832544755    0.501556966455    2.184833988741
 H   -1.261766544755    1.188206966455    2.185087988741
 C   -0.674638544755   -0.862483033545    2.184888988741
 H   -1.652262544755   -1.338499033545    2.184762988741
 N    0.504277455245   -1.489078033545    2.184877988741
 K   -0.514101171757    0.506739653248   -3.815163151205
