10

 C    0.838089686916    0.770210426723    2.548988675333
 H    1.231576686916    1.783339426723    2.549208675333
 C    1.450122686916   -0.479897573277    2.549024675333
 H    2.515829686916   -0.698624573277    2.548930675333
 N   -0.516998313084    0.501242426723    2.548976675333
 H   -1.261932313084    1.187892426723    2.549230675333
 C   -0.674804313084   -0.862797573277    2.549031675333
 H   -1.652428313084   -1.338813573277    2.548905675333
 N    0.504111686916   -1.489392573277    2.549020675333
 K   -0.513811711254    0.507288894648   -4.451019987937
