10

 C    0.838056533250    0.770147518777    2.621817212652
 H    1.231543533250    1.783276518777    2.622037212652
 C    1.450089533250   -0.479960481223    2.621853212652
 H    2.515796533250   -0.698687481223    2.621759212652
 N   -0.517031466750    0.501179518777    2.621805212652
 H   -1.261965466750    1.187829518777    2.622059212652
 C   -0.674837466750   -0.862860481223    2.621860212652
 H   -1.652461466750   -1.338876481223    2.621734212652
 N    0.504078533250   -1.489455481223    2.621849212652
 K   -0.513753819153    0.507398742928   -4.578191355283
