10

 C    0.838023379584    0.770084610831    2.694645749970
 H    1.231510379584    1.783213610831    2.694865749970
 C    1.450056379584   -0.480023389169    2.694681749970
 H    2.515763379584   -0.698750389169    2.694587749970
 N   -0.517064620416    0.501116610831    2.694633749970
 H   -1.261998620416    1.187766610831    2.694887749970
 C   -0.674870620416   -0.862923389169    2.694688749970
 H   -1.652494620416   -1.338939389169    2.694562749970
 N    0.504045379584   -1.489518389169    2.694677749970
 K   -0.513695927052    0.507508591208   -4.705362722630
