10

 C    0.837973649085    0.769990248911    2.803888555948
 H    1.231460649085    1.783119248911    2.804108555948
 C    1.450006649085   -0.480117751089    2.803924555948
 H    2.515713649085   -0.698844751089    2.803830555948
 N   -0.517114350915    0.501022248911    2.803876555948
 H   -1.262048350915    1.187672248911    2.804130555948
 C   -0.674920350915   -0.863017751089    2.803931555948
 H   -1.652544350915   -1.339033751089    2.803805555948
 N    0.503995649085   -1.489612751089    2.803920555948
 K   -0.513609088901    0.507673363628   -4.896119773649
