10

 C    0.837890764921    0.769832979045    2.985959899244
 H    1.231377764921    1.782961979045    2.986179899244
 C    1.449923764921   -0.480275020955    2.985995899244
 H    2.515630764921   -0.699002020955    2.985901899244
 N   -0.517197235079    0.500864979045    2.985947899244
 H   -1.262131235079    1.187514979045    2.986201899244
 C   -0.675003235079   -0.863175020955    2.986002899244
 H   -1.652627235079   -1.339191020955    2.985876899244
 N    0.503912764921   -1.489770020955    2.985991899244
 K   -0.513464358649    0.507947984328   -5.214048192015
