10

 C    0.837824457589    0.769707163152    3.131616973881
 H    1.231311457589    1.782836163152    3.131836973881
 C    1.449857457589   -0.480400836848    3.131652973881
 H    2.515564457589   -0.699127836848    3.131558973881
 N   -0.517263542411    0.500739163152    3.131604973881
 H   -1.262197542411    1.187389163152    3.131858973881
 C   -0.675069542411   -0.863300836848    3.131659973881
 H   -1.652693542411   -1.339316836848    3.131533973881
 N    0.503846457589   -1.489895836848    3.131648973881
 K   -0.513348574448    0.508167680888   -5.468390926708
