10

 C    0.837807880756    0.769675709179    3.168031242540
 H    1.231294880756    1.782804709179    3.168251242540
 C    1.449840880756   -0.480432290821    3.168067242540
 H    2.515547880756   -0.699159290821    3.167973242540
 N   -0.517280119244    0.500707709179    3.168019242540
 H   -1.262214119244    1.187357709179    3.168273242540
 C   -0.675086119244   -0.863332290821    3.168074242540
 H   -1.652710119244   -1.339348290821    3.167948242540
 N    0.503829880756   -1.489927290821    3.168063242540
 K   -0.513319628397    0.508222605028   -5.531976610381
