10

 C    0.837741573424    0.769549893286    3.313688317177
 H    1.231228573424    1.782678893286    3.313908317177
 C    1.449774573424   -0.480558106714    3.313724317177
 H    2.515481573424   -0.699285106714    3.313630317177
 N   -0.517346426576    0.500581893286    3.313676317177
 H   -1.262280426576    1.187231893286    3.313930317177
 C   -0.675152426576   -0.863458106714    3.313731317177
 H   -1.652776426576   -1.339474106714    3.313605317177
 N    0.503763573424   -1.490053106714    3.313720317177
 K   -0.513203844196    0.508442301588   -5.786319345074
