10

 C    0.837724996592    0.769518439313    3.350102585837
 H    1.231211996592    1.782647439313    3.350322585837
 C    1.449757996592   -0.480589560687    3.350138585837
 H    2.515464996592   -0.699316560687    3.350044585837
 N   -0.517363003408    0.500550439313    3.350090585837
 H   -1.262297003408    1.187200439313    3.350344585837
 C   -0.675169003408   -0.863489560687    3.350145585837
 H   -1.652793003408   -1.339505560687    3.350019585837
 N    0.503746996592   -1.490084560687    3.350134585837
 K   -0.513174898145    0.508497225728   -5.849905028747
