10

 C    0.837691842926    0.769455531367    3.422931123155
 H    1.231178842926    1.782584531367    3.423151123155
 C    1.449724842926   -0.480652468633    3.422967123155
 H    2.515431842926   -0.699379468633    3.422873123155
 N   -0.517396157074    0.500487531367    3.422919123155
 H   -1.262330157074    1.187137531367    3.423173123155
 C   -0.675202157074   -0.863552468633    3.422974123155
 H   -1.652826157074   -1.339568468633    3.422848123155
 N    0.503713842926   -1.490147468633    3.422963123155
 K   -0.513117006045    0.508607074008   -5.977076396093
