10

 C    0.837608958761    0.769298261501    3.605002466451
 H    1.231095958761    1.782427261501    3.605222466451
 C    1.449641958761   -0.480809738499    3.605038466451
 H    2.515348958761   -0.699536738499    3.604944466451
 N   -0.517479041239    0.500330261501    3.604990466451
 H   -1.262413041239    1.186980261501    3.605244466451
 C   -0.675285041239   -0.863709738499    3.605045466451
 H   -1.652909041239   -1.339725738499    3.604919466451
 N    0.503630958761   -1.490304738499    3.605034466451
 K   -0.512972275793    0.508881694708   -6.295004814459
