7

 C   -0.018814452118    0.922698599012   -0.168839856818
 O   -0.018814452118   -0.512187400988   -0.168839856818
 H    0.900195547882   -0.808988400988   -0.168839856818
 H   -1.072133452118    1.230687599012   -0.168839856818
 H    0.469851547882    1.333631599012    0.730600143182
 H    0.469851547882    1.333631599012   -1.068279856818
LI   -0.035214349662   -0.854207544314    0.770709644231
