7

 C   -0.018225029985    0.934991007653   -0.202607828181
 O   -0.018225029985   -0.499894992347   -0.202607828181
 H    0.900784970015   -0.796695992347   -0.202607828181
 H   -1.071544029985    1.242980007653   -0.202607828181
 H    0.470440970015    1.345924007653    0.696832171819
 H    0.470440970015    1.345924007653   -1.102047828181
LI   -0.037904907038   -0.910319164338    0.924851573077
