7

 C   -0.017046185720    0.959575824936   -0.270143770908
 O   -0.017046185720   -0.475310175064   -0.270143770908
 H    0.901963814280   -0.772111175064   -0.270143770908
 H   -1.070365185720    1.267564824936   -0.270143770908
 H    0.471619814280    1.370508824936    0.629296229092
 H    0.471619814280    1.370508824936   -1.169583770908
LI   -0.043286021790   -1.022542404385    1.233135430769
