7

 C   -0.016456763587    0.971868233577   -0.303911742272
 O   -0.016456763587   -0.463017766423   -0.303911742272
 H    0.902553236413   -0.759818766423   -0.303911742272
 H   -1.069775763587    1.279857233577   -0.303911742272
 H    0.472209236413    1.382801233577    0.595528257728
 H    0.472209236413    1.382801233577   -1.203351742272
LI   -0.045976579167   -1.078654024409    1.387277359615
