7

 C   -0.016162052521    0.978014437898   -0.320795727953
 O   -0.016162052521   -0.456871562102   -0.320795727953
 H    0.902847947479   -0.753672562102   -0.320795727953
 H   -1.069481052521    1.286003437898   -0.320795727953
 H    0.472503947479    1.388947437898    0.578644272047
 H    0.472503947479    1.388947437898   -1.220235727953
LI   -0.047321857855   -1.106709834421    1.464348324038
