7

 C    0.007709543851    1.475856987868   -1.688398568176
 O    0.007709543851    0.040970987868   -1.688398568176
 H    0.926719543851   -0.255830012132   -1.688398568176
 H   -1.045609456149    1.783845987868   -1.688398568176
 H    0.496375543851    1.886789987868   -0.788958568176
 H    0.496375543851    1.886789987868   -2.587838568176
LI   -0.156289431590   -3.379230445389    7.707096442307
