7

 C   -0.015572630388    0.990306846539   -0.354563699317
 O   -0.015572630388   -0.444579153461   -0.354563699317
 H    0.903437369612   -0.741380153461   -0.354563699317
 H   -1.068891630388    1.298295846539   -0.354563699317
 H    0.473093369612    1.401239846539    0.544876300683
 H    0.473093369612    1.401239846539   -1.254003699317
LI   -0.050012415231   -1.162821454445    1.618490252884
