7

 C   -0.014983208256    1.002599255180   -0.388331670680
 O   -0.014983208256   -0.432286744820   -0.388331670680
 H    0.904026791744   -0.729087744820   -0.388331670680
 H   -1.068302208256    1.310588255180   -0.388331670680
 H    0.473682791744    1.413532255180    0.511108329320
 H    0.473682791744    1.413532255180   -1.287771670680
LI   -0.052702972607   -1.218933074469    1.772632181731
