7

 C   -0.014688497189    1.008745459501   -0.405215656362
 O   -0.014688497189   -0.426140540499   -0.405215656362
 H    0.904321502811   -0.722941540499   -0.405215656362
 H   -1.068007497189    1.316734459501   -0.405215656362
 H    0.473977502811    1.419678459501    0.494224343638
 H    0.473977502811    1.419678459501   -1.304655656362
LI   -0.054048251295   -1.246988884481    1.849703146154
