7

 C   -0.014099075057    1.021037868142   -0.438983627726
 O   -0.014099075057   -0.413848131858   -0.438983627726
 H    0.904910924943   -0.710649131858   -0.438983627726
 H   -1.067418075057    1.329026868142   -0.438983627726
 H    0.474566924943    1.431970868142    0.460456372274
 H    0.474566924943    1.431970868142   -1.338423627726
LI   -0.056738808671   -1.303100504505    2.003845075000
