7

 C   -0.013804363990    1.027184072463   -0.455867613407
 O   -0.013804363990   -0.407701927537   -0.455867613407
 H    0.905205636010   -0.704502927537   -0.455867613407
 H   -1.067123363990    1.335173072463   -0.455867613407
 H    0.474861636010    1.438117072463    0.443572386593
 H    0.474861636010    1.438117072463   -1.355307613407
LI   -0.058084087359   -1.331156314517    2.080916039423
