7

 C   -0.013509652924    1.033330276783   -0.472751599089
 O   -0.013509652924   -0.401555723217   -0.472751599089
 H    0.905500347076   -0.698356723217   -0.472751599089
 H   -1.066828652924    1.341319276783   -0.472751599089
 H    0.475156347076    1.444263276783    0.426688400911
 H    0.475156347076    1.444263276783   -1.372191599089
LI   -0.059429366047   -1.359212124529    2.157987003846
