7

 C   -0.012036097592    1.064061298386   -0.557171527498
 O   -0.012036097592   -0.370824701614   -0.557171527498
 H    0.906973902408   -0.667625701614   -0.557171527498
 H   -1.065355097592    1.372050298386   -0.557171527498
 H    0.476629902408    1.474994298386    0.342268472502
 H    0.476629902408    1.474994298386   -1.456611527498
LI   -0.066155759488   -1.499491174588    2.543341825961
