7

 C   -0.011741386526    1.070207502707   -0.574055513180
 O   -0.011741386526   -0.364678497293   -0.574055513180
 H    0.907268613474   -0.661479497293   -0.574055513180
 H   -1.065060386526    1.378196502707   -0.574055513180
 H    0.476924613474    1.481140502707    0.325384486820
 H    0.476924613474    1.481140502707   -1.473495513180
LI   -0.067501038176   -1.527546984600    2.620412790384
