7

 C   -0.010857253327    1.088646115669   -0.624707470225
 O   -0.010857253327   -0.346239884331   -0.624707470225
 H    0.908152746673   -0.643040884331   -0.624707470225
 H   -1.064176253327    1.396635115669   -0.624707470225
 H    0.477808746673    1.499579115669    0.274732529775
 H    0.477808746673    1.499579115669   -1.524147470225
LI   -0.071536874240   -1.611714414636    2.851625683654
