7

 C   -0.009973120128    1.107084728631   -0.675359427270
 O   -0.009973120128   -0.327801271369   -0.675359427270
 H    0.909036879872   -0.624602271369   -0.675359427270
 H   -1.063292120128    1.415073728631   -0.675359427270
 H    0.478692879872    1.518017728631    0.224080572730
 H    0.478692879872    1.518017728631   -1.574799427270
LI   -0.075572710304   -1.695881844672    3.082838576923
