7

 C   -0.009383697996    1.119377137272   -0.709127398634
 O   -0.009383697996   -0.315508862728   -0.709127398634
 H    0.909626302004   -0.612309862728   -0.709127398634
 H   -1.062702697996    1.427366137272   -0.709127398634
 H    0.479282302004    1.530310137272    0.190312601366
 H    0.479282302004    1.530310137272   -1.608567398634
LI   -0.078263267681   -1.751993464696    3.236980505769
