7

 C   -0.009088986929    1.125523341593   -0.726011384315
 O   -0.009088986929   -0.309362658407   -0.726011384315
 H    0.909921013071   -0.606163658407   -0.726011384315
 H   -1.062407986929    1.433512341593   -0.726011384315
 H    0.479577013071    1.536456341593    0.173428615685
 H    0.479577013071    1.536456341593   -1.625451384315
LI   -0.079608546369   -1.780049274708    3.314051470192
