7

 C   -0.008499564797    1.137815750234   -0.759779355679
 O   -0.008499564797   -0.297070249766   -0.759779355679
 H    0.910510435203   -0.593871249766   -0.759779355679
 H   -1.061818564797    1.445804750234   -0.759779355679
 H    0.480166435203    1.548748750234    0.139660644321
 H    0.480166435203    1.548748750234   -1.659219355679
LI   -0.082299103745   -1.836160894732    3.468193399038
