7

 C   -0.006141876266    1.186985384799   -0.894851241133
 O   -0.006141876266   -0.247900615201   -0.894851241133
 H    0.912868123734   -0.544701615201   -0.894851241133
 H   -1.059460876266    1.494974384799   -0.894851241133
 H    0.482524123734    1.597918384799    0.004588758867
 H    0.482524123734    1.597918384799   -1.794291241133
LI   -0.093061333250   -2.060607374827    4.084761114423
