7

 C   -0.004373609868    1.223862610723   -0.996155155224
 O   -0.004373609868   -0.211023389277   -0.996155155224
 H    0.914636390132   -0.507824389277   -0.996155155224
 H   -1.057692609868    1.531851610723   -0.996155155224
 H    0.484292390132    1.634795610723   -0.096715155224
 H    0.484292390132    1.634795610723   -1.895595155224
LI   -0.101133005378   -2.228942234899    4.547186900961
