9

 C   -2.837467823601   -1.647154050245    0.000000000000
 H   -3.816394823601   -1.155366050245    0.000000000000
 H   -2.730321823601   -2.286963050245    0.888272000000
 H   -2.730321823601   -2.286963050245   -0.888272000000
 C   -1.752840823601   -0.601570050245    0.000000000000
 O   -1.913944823601    0.607980949755    0.000000000000
 O   -0.510554823601   -1.178578050245    0.000000000000
 H    0.123981176399   -0.440015050245    0.000000000000
CS    0.775649511440    0.318488991343    0.000000000000
