9

 C   -2.882360691136   -1.699406737131    0.000000000000
 H   -3.861287691136   -1.207618737131    0.000000000000
 H   -2.775214691136   -2.339215737131    0.888272000000
 H   -2.775214691136   -2.339215737131   -0.888272000000
 C   -1.797733691136   -0.653822737131    0.000000000000
 O   -1.958837691136    0.555728262869    0.000000000000
 O   -0.555447691136   -1.230830737131    0.000000000000
 H    0.079088308864   -0.492267737131    0.000000000000
CS    0.795923477409    0.342086708616    0.000000000000
