9

 C   -3.017039293744   -1.856164797788    0.000000000000
 H   -3.995966293744   -1.364376797788    0.000000000000
 H   -2.909893293744   -2.495973797788    0.888272000000
 H   -2.909893293744   -2.495973797788   -0.888272000000
 C   -1.932412293744   -0.810580797788    0.000000000000
 O   -2.093516293744    0.398970202212    0.000000000000
 O   -0.690126293744   -1.387588797788    0.000000000000
 H   -0.055590293744   -0.649025797788    0.000000000000
CS    0.856745375314    0.412879860435    0.000000000000
