9

 C   -3.061932161279   -1.908417484674    0.000000000000
 H   -4.040859161279   -1.416629484674    0.000000000000
 H   -2.954786161279   -2.548226484674    0.888272000000
 H   -2.954786161279   -2.548226484674   -0.888272000000
 C   -1.977305161279   -0.862833484674    0.000000000000
 O   -2.138409161279    0.346717515326    0.000000000000
 O   -0.735019161279   -1.439841484674    0.000000000000
 H   -0.100483161279   -0.701278484674    0.000000000000
CS    0.877019341282    0.436477577708    0.000000000000
