9

 C   -6.877825901818   -6.349895869972    0.000000000000
 H   -7.856752901818   -5.858107869972    0.000000000000
 H   -6.770679901818   -6.989704869972    0.888272000000
 H   -6.770679901818   -6.989704869972   -0.888272000000
 C   -5.793198901818   -5.304311869972    0.000000000000
 O   -5.954302901818   -4.094760869972    0.000000000000
 O   -4.550912901818   -5.881319869972    0.000000000000
 H   -3.916376901818   -5.142756869972    0.000000000000
CS    2.600306448592    2.442283545905    0.000000000000
