9

 C   -3.286396498958   -2.169680919103    0.000000000000
 H   -4.265323498958   -1.677892919103    0.000000000000
 H   -3.179250498958   -2.809489919103    0.888272000000
 H   -3.179250498958   -2.809489919103   -0.888272000000
 C   -2.201769498958   -1.124096919103    0.000000000000
 O   -2.362873498958    0.085454080897    0.000000000000
 O   -0.959483498958   -1.701104919103    0.000000000000
 H   -0.324947498958   -0.962541919103    0.000000000000
CS    0.978389171124    0.554466164072    0.000000000000
