9

 C   -3.600646571708   -2.535449727304    0.000000000000
 H   -4.579573571708   -2.043661727304    0.000000000000
 H   -3.493500571708   -3.175258727304    0.888272000000
 H   -3.493500571708   -3.175258727304   -0.888272000000
 C   -2.516019571708   -1.489865727304    0.000000000000
 O   -2.677123571708   -0.280314727304    0.000000000000
 O   -1.273733571708   -2.066873727304    0.000000000000
 H   -0.639197571708   -1.328310727304    0.000000000000
CS    1.120306932902    0.719650184983    0.000000000000
