9

 C   -3.645539439244   -2.587702414190    0.000000000000
 H   -4.624466439244   -2.095914414190    0.000000000000
 H   -3.538393439244   -3.227511414190    0.888272000000
 H   -3.538393439244   -3.227511414190   -0.888272000000
 C   -2.560912439244   -1.542118414190    0.000000000000
 O   -2.722016439244   -0.332567414190    0.000000000000
 O   -1.318626439244   -2.119126414190    0.000000000000
 H   -0.684090439244   -1.380563414190    0.000000000000
CS    1.140580898871    0.743247902255    0.000000000000
