9

 C   -3.690432306780   -2.639955101076    0.000000000000
 H   -4.669359306780   -2.148167101076    0.000000000000
 H   -3.583286306780   -3.279764101076    0.888272000000
 H   -3.583286306780   -3.279764101076   -0.888272000000
 C   -2.605805306780   -1.594371101076    0.000000000000
 O   -2.766909306780   -0.384820101076    0.000000000000
 O   -1.363519306780   -2.171379101076    0.000000000000
 H   -0.728983306780   -1.432816101076    0.000000000000
CS    1.160854864839    0.766845619528    0.000000000000
