9

 C   -3.870003776923   -2.848965848619    0.000000000000
 H   -4.848930776923   -2.357177848619    0.000000000000
 H   -3.762857776923   -3.488774848619    0.888272000000
 H   -3.762857776923   -3.488774848619   -0.888272000000
 C   -2.785376776923   -1.803381848619    0.000000000000
 O   -2.946480776923   -0.593830848619    0.000000000000
 O   -1.543090776923   -2.380389848619    0.000000000000
 H   -0.908554776923   -1.641826848619    0.000000000000
CS    1.241950728713    0.861236488620    0.000000000000
