9

 C   -3.959789511994   -2.953471222391    0.000000000000
 H   -4.938716511994   -2.461683222391    0.000000000000
 H   -3.852643511994   -3.593280222391    0.888272000000
 H   -3.852643511994   -3.593280222391   -0.888272000000
 C   -2.875162511994   -1.907887222391    0.000000000000
 O   -3.036266511994   -0.698336222391    0.000000000000
 O   -1.632876511994   -2.484895222391    0.000000000000
 H   -0.998340511994   -1.746332222391    0.000000000000
CS    1.282498660649    0.908431923166    0.000000000000
