9

 C   -4.004682379530   -3.005723909277    0.000000000000
 H   -4.983609379530   -2.513935909277    0.000000000000
 H   -3.897536379530   -3.645532909277    0.888272000000
 H   -3.897536379530   -3.645532909277   -0.888272000000
 C   -2.920055379530   -1.960139909277    0.000000000000
 O   -3.081159379530   -0.750588909277    0.000000000000
 O   -1.677769379530   -2.537147909277    0.000000000000
 H   -1.043233379530   -1.798584909277    0.000000000000
CS    1.302772626618    0.932029640439    0.000000000000
