9

 C   -4.184253849673   -3.214734656820    0.000000000000
 H   -5.163180849673   -2.722946656820    0.000000000000
 H   -4.077107849673   -3.854543656820    0.888272000000
 H   -4.077107849673   -3.854543656820   -0.888272000000
 C   -3.099626849673   -2.169150656820    0.000000000000
 O   -3.260730849673   -0.959599656820    0.000000000000
 O   -1.857340849673   -2.746158656820    0.000000000000
 H   -1.222804849673   -2.007595656820    0.000000000000
CS    1.383868490491    1.026420509530    0.000000000000
