9

 C   -4.274039584745   -3.319240030592    0.000000000000
 H   -5.252966584745   -2.827452030592    0.000000000000
 H   -4.166893584745   -3.959049030592    0.888272000000
 H   -4.166893584745   -3.959049030592   -0.888272000000
 C   -3.189412584745   -2.273656030592    0.000000000000
 O   -3.350516584745   -1.064105030592    0.000000000000
 O   -1.947126584745   -2.850664030592    0.000000000000
 H   -1.312590584745   -2.112101030592    0.000000000000
CS    1.424416422428    1.073615944076    0.000000000000
