9

 C   -4.363825319816   -3.423745404364    0.000000000000
 H   -5.342752319816   -2.931957404364    0.000000000000
 H   -4.256679319816   -4.063554404364    0.888272000000
 H   -4.256679319816   -4.063554404364   -0.888272000000
 C   -3.279198319816   -2.378161404364    0.000000000000
 O   -3.440302319816   -1.168610404364    0.000000000000
 O   -2.036912319816   -2.955169404364    0.000000000000
 H   -1.402376319816   -2.216606404364    0.000000000000
CS    1.464964354364    1.120811378622    0.000000000000
