9

 C   -4.453611054887   -3.528250778136    0.000000000000
 H   -5.432538054887   -3.036462778136    0.000000000000
 H   -4.346465054887   -4.168059778136    0.888272000000
 H   -4.346465054887   -4.168059778136   -0.888272000000
 C   -3.368984054887   -2.482666778136    0.000000000000
 O   -3.530088054887   -1.273115778136    0.000000000000
 O   -2.126698054887   -3.059674778136    0.000000000000
 H   -1.492162054887   -2.321111778136    0.000000000000
CS    1.505512286301    1.168006813168    0.000000000000
