9

 C   -4.498503922423   -3.580503465021    0.000000000000
 H   -5.477430922423   -3.088715465021    0.000000000000
 H   -4.391357922423   -4.220312465021    0.888272000000
 H   -4.391357922423   -4.220312465021   -0.888272000000
 C   -3.413876922423   -2.534919465021    0.000000000000
 O   -3.574980922423   -1.325368465021    0.000000000000
 O   -2.171590922423   -3.111927465021    0.000000000000
 H   -1.537054922423   -2.373364465021    0.000000000000
CS    1.525786252270    1.191604530441    0.000000000000
