9

 C   -4.588289657495   -3.685008838793    0.000000000000
 H   -5.567216657495   -3.193220838793    0.000000000000
 H   -4.481143657495   -4.324817838793    0.888272000000
 H   -4.481143657495   -4.324817838793   -0.888272000000
 C   -3.503662657495   -2.639424838793    0.000000000000
 O   -3.664766657495   -1.429873838793    0.000000000000
 O   -2.261376657495   -3.216432838793    0.000000000000
 H   -1.626840657495   -2.477869838793    0.000000000000
CS    1.566334184206    1.238799964987    0.000000000000
