9

 C   -4.633182525030   -3.737261525679    0.000000000000
 H   -5.612109525030   -3.245473525679    0.000000000000
 H   -4.526036525030   -4.377070525679    0.888272000000
 H   -4.526036525030   -4.377070525679   -0.888272000000
 C   -3.548555525030   -2.691677525679    0.000000000000
 O   -3.709659525030   -1.482126525679    0.000000000000
 O   -2.306269525030   -3.268685525679    0.000000000000
 H   -1.671733525030   -2.530122525679    0.000000000000
CS    1.586608150175    1.262397682260    0.000000000000
