9

 C   -4.678075392566   -3.789514212565    0.000000000000
 H   -5.657002392566   -3.297726212565    0.000000000000
 H   -4.570929392566   -4.429323212565    0.888272000000
 H   -4.570929392566   -4.429323212565   -0.888272000000
 C   -3.593448392566   -2.743930212565    0.000000000000
 O   -3.754552392566   -1.534379212565    0.000000000000
 O   -2.351162392566   -3.320938212565    0.000000000000
 H   -1.716626392566   -2.582375212565    0.000000000000
CS    1.606882116143    1.285995399532    0.000000000000
