9

 C   -4.722968260102   -3.841766899451    0.000000000000
 H   -5.701895260102   -3.349978899451    0.000000000000
 H   -4.615822260102   -4.481575899451    0.888272000000
 H   -4.615822260102   -4.481575899451   -0.888272000000
 C   -3.638341260102   -2.796182899451    0.000000000000
 O   -3.799445260102   -1.586631899451    0.000000000000
 O   -2.396055260102   -3.373190899451    0.000000000000
 H   -1.761519260102   -2.634627899451    0.000000000000
CS    1.627156082111    1.309593116805    0.000000000000
