9

 C   -4.767861127638   -3.894019586337    0.000000000000
 H   -5.746788127638   -3.402231586337    0.000000000000
 H   -4.660715127638   -4.533828586337    0.888272000000
 H   -4.660715127638   -4.533828586337   -0.888272000000
 C   -3.683234127638   -2.848435586337    0.000000000000
 O   -3.844338127638   -1.638884586337    0.000000000000
 O   -2.440948127638   -3.425443586337    0.000000000000
 H   -1.806412127638   -2.686880586337    0.000000000000
CS    1.647430048080    1.333190834078    0.000000000000
