9

 C   -4.812753995173   -3.946272273222    0.000000000000
 H   -5.791680995173   -3.454484273222    0.000000000000
 H   -4.705607995173   -4.586081273222    0.888272000000
 H   -4.705607995173   -4.586081273222   -0.888272000000
 C   -3.728126995173   -2.900688273222    0.000000000000
 O   -3.889230995173   -1.691137273222    0.000000000000
 O   -2.485840995173   -3.477696273222    0.000000000000
 H   -1.851304995173   -2.739133273222    0.000000000000
CS    1.667704014048    1.356788551351    0.000000000000
