9

 C   -4.902539730245   -4.050777646994    0.000000000000
 H   -5.881466730245   -3.558989646994    0.000000000000
 H   -4.795393730245   -4.690586646994    0.888272000000
 H   -4.795393730245   -4.690586646994   -0.888272000000
 C   -3.817912730245   -3.005193646994    0.000000000000
 O   -3.979016730245   -1.795642646994    0.000000000000
 O   -2.575626730245   -3.582201646994    0.000000000000
 H   -1.941090730245   -2.843638646994    0.000000000000
CS    1.708251945985    1.403983985897    0.000000000000
