9

 C   -4.947432597781   -4.103030333880    0.000000000000
 H   -5.926359597781   -3.611242333880    0.000000000000
 H   -4.840286597781   -4.742839333880    0.888272000000
 H   -4.840286597781   -4.742839333880   -0.888272000000
 C   -3.862805597781   -3.057446333880    0.000000000000
 O   -4.023909597781   -1.847895333880    0.000000000000
 O   -2.620519597781   -3.634454333880    0.000000000000
 H   -1.985983597781   -2.895891333880    0.000000000000
CS    1.728525911953    1.427581703170    0.000000000000
