9

 C   -4.992325465316   -4.155283020766    0.000000000000
 H   -5.971252465316   -3.663495020766    0.000000000000
 H   -4.885179465316   -4.795092020766    0.888272000000
 H   -4.885179465316   -4.795092020766   -0.888272000000
 C   -3.907698465316   -3.109699020766    0.000000000000
 O   -4.068802465316   -1.900148020766    0.000000000000
 O   -2.665412465316   -3.686707020766    0.000000000000
 H   -2.030876465316   -2.948144020766    0.000000000000
CS    1.748799877921    1.451179420443    0.000000000000
