9

 C   -5.037218332852   -4.207535707652    0.000000000000
 H   -6.016145332852   -3.715747707652    0.000000000000
 H   -4.930072332852   -4.847344707652    0.888272000000
 H   -4.930072332852   -4.847344707652   -0.888272000000
 C   -3.952591332852   -3.161951707652    0.000000000000
 O   -4.113695332852   -1.952400707652    0.000000000000
 O   -2.710305332852   -3.738959707652    0.000000000000
 H   -2.075769332852   -3.000396707652    0.000000000000
CS    1.769073843890    1.474777137716    0.000000000000
