9

 C   -5.082111200388   -4.259788394537    0.000000000000
 H   -6.061038200388   -3.768000394537    0.000000000000
 H   -4.974965200388   -4.899597394537    0.888272000000
 H   -4.974965200388   -4.899597394537   -0.888272000000
 C   -3.997484200388   -3.214204394537    0.000000000000
 O   -4.158588200388   -2.004653394537    0.000000000000
 O   -2.755198200388   -3.791212394537    0.000000000000
 H   -2.120662200388   -3.052649394537    0.000000000000
CS    1.789347809858    1.498374854989    0.000000000000
