9

 C   -5.171896935459   -4.364293768309    0.000000000000
 H   -6.150823935459   -3.872505768309    0.000000000000
 H   -5.064750935459   -5.004102768309    0.888272000000
 H   -5.064750935459   -5.004102768309   -0.888272000000
 C   -4.087269935459   -3.318709768309    0.000000000000
 O   -4.248373935459   -2.109158768309    0.000000000000
 O   -2.844983935459   -3.895717768309    0.000000000000
 H   -2.210447935459   -3.157154768309    0.000000000000
CS    1.829895741795    1.545570289535    0.000000000000
