9

 C   -5.351468405602   -4.573304515853    0.000000000000
 H   -6.330395405602   -4.081516515853    0.000000000000
 H   -5.244322405602   -5.213113515853    0.888272000000
 H   -5.244322405602   -5.213113515853   -0.888272000000
 C   -4.266841405602   -3.527720515853    0.000000000000
 O   -4.427945405602   -2.318169515853    0.000000000000
 O   -3.024555405602   -4.104728515853    0.000000000000
 H   -2.390019405602   -3.366165515853    0.000000000000
CS    1.910991605668    1.639961158626    0.000000000000
