9

 C   -5.396361273138   -4.625557202738    0.000000000000
 H   -6.375288273138   -4.133769202738    0.000000000000
 H   -5.289215273138   -5.265366202738    0.888272000000
 H   -5.289215273138   -5.265366202738   -0.888272000000
 C   -4.311734273138   -3.579973202738    0.000000000000
 O   -4.472838273138   -2.370422202738    0.000000000000
 O   -3.069448273138   -4.156981202738    0.000000000000
 H   -2.434912273138   -3.418418202738    0.000000000000
CS    1.931265571637    1.663558875899    0.000000000000
