9

 C   -5.486147008210   -4.730062576510    0.000000000000
 H   -6.465074008210   -4.238274576510    0.000000000000
 H   -5.379001008210   -5.369871576510    0.888272000000
 H   -5.379001008210   -5.369871576510   -0.888272000000
 C   -4.401520008210   -3.684478576510    0.000000000000
 O   -4.562624008210   -2.474927576510    0.000000000000
 O   -3.159234008210   -4.261486576510    0.000000000000
 H   -2.524698008210   -3.522923576510    0.000000000000
CS    1.971813503573    1.710754310445    0.000000000000
