9

 C   -5.620825610817   -4.886820637168    0.000000000000
 H   -6.599752610817   -4.395032637168    0.000000000000
 H   -5.513679610817   -5.526629637168    0.888272000000
 H   -5.513679610817   -5.526629637168   -0.888272000000
 C   -4.536198610817   -3.841236637168    0.000000000000
 O   -4.697302610817   -2.631685637168    0.000000000000
 O   -3.293912610817   -4.418244637168    0.000000000000
 H   -2.659376610817   -3.679681637168    0.000000000000
CS    2.032635401478    1.781547462264    0.000000000000
