9

 C   -5.755504213424   -5.043578697825    0.000000000000
 H   -6.734431213424   -4.551790697825    0.000000000000
 H   -5.648358213424   -5.683387697825    0.888272000000
 H   -5.648358213424   -5.683387697825   -0.888272000000
 C   -4.670877213424   -3.997994697825    0.000000000000
 O   -4.831981213424   -2.788443697825    0.000000000000
 O   -3.428591213424   -4.575002697825    0.000000000000
 H   -2.794055213424   -3.836439697825    0.000000000000
CS    2.093457299383    1.852340614082    0.000000000000
