9

 C   -5.935075683567   -5.252589445369    0.000000000000
 H   -6.914002683567   -4.760801445369    0.000000000000
 H   -5.827929683567   -5.892398445369    0.888272000000
 H   -5.827929683567   -5.892398445369   -0.888272000000
 C   -4.850448683567   -4.207005445369    0.000000000000
 O   -5.011552683567   -2.997454445369    0.000000000000
 O   -3.608162683567   -4.784013445369    0.000000000000
 H   -2.973626683567   -4.045450445369    0.000000000000
CS    2.174553163257    1.946731483174    0.000000000000
