9

 C   -6.249325756317   -5.618358253570    0.000000000000
 H   -7.228252756317   -5.126570253570    0.000000000000
 H   -6.142179756317   -6.258167253570    0.888272000000
 H   -6.142179756317   -6.258167253570   -0.888272000000
 C   -5.164698756317   -4.572774253570    0.000000000000
 O   -5.325802756317   -3.363223253570    0.000000000000
 O   -3.922412756317   -5.149782253570    0.000000000000
 H   -3.287876756317   -4.411219253570    0.000000000000
CS    2.316470925035    2.111915504085    0.000000000000
