9

 C   -6.339111491389   -5.722863627341    0.000000000000
 H   -7.318038491389   -5.231075627341    0.000000000000
 H   -6.231965491389   -6.362672627341    0.888272000000
 H   -6.231965491389   -6.362672627341   -0.888272000000
 C   -5.254484491389   -4.677279627341    0.000000000000
 O   -5.415588491389   -3.467728627341    0.000000000000
 O   -4.012198491389   -5.254287627341    0.000000000000
 H   -3.377662491389   -4.515724627341    0.000000000000
CS    2.357018856972    2.159110938630    0.000000000000
