9

 C   -6.518682961532   -5.931874374885    0.000000000000
 H   -7.497609961532   -5.440086374885    0.000000000000
 H   -6.411536961532   -6.571683374885    0.888272000000
 H   -6.411536961532   -6.571683374885   -0.888272000000
 C   -5.434055961532   -4.886290374885    0.000000000000
 O   -5.595159961532   -3.676739374885    0.000000000000
 O   -4.191769961532   -5.463298374885    0.000000000000
 H   -3.557233961532   -4.724735374885    0.000000000000
CS    2.438114720845    2.253501807722    0.000000000000
