9

 C   -6.653361564139   -6.088632435542    0.000000000000
 H   -7.632288564139   -5.596844435542    0.000000000000
 H   -6.546215564139   -6.728441435542    0.888272000000
 H   -6.546215564139   -6.728441435542   -0.888272000000
 C   -5.568734564139   -5.043048435542    0.000000000000
 O   -5.729838564139   -3.833497435542    0.000000000000
 O   -4.326448564139   -5.620056435542    0.000000000000
 H   -3.691912564139   -4.881493435542    0.000000000000
CS    2.498936618751    2.324294959541    0.000000000000
