9

 C   -6.743147299211   -6.193137809314    0.000000000000
 H   -7.722074299211   -5.701349809314    0.000000000000
 H   -6.636001299211   -6.832946809314    0.888272000000
 H   -6.636001299211   -6.832946809314   -0.888272000000
 C   -5.658520299211   -5.147553809314    0.000000000000
 O   -5.819624299211   -3.938002809314    0.000000000000
 O   -4.416234299211   -5.724561809314    0.000000000000
 H   -3.781698299211   -4.985998809314    0.000000000000
CS    2.539484550687    2.371490394087    0.000000000000
