9

 C   -6.788040166746   -6.245390496200    0.000000000000
 H   -7.766967166746   -5.753602496200    0.000000000000
 H   -6.680894166746   -6.885199496200    0.888272000000
 H   -6.680894166746   -6.885199496200   -0.888272000000
 C   -5.703413166746   -5.199806496200    0.000000000000
 O   -5.864517166746   -3.990255496200    0.000000000000
 O   -4.461127166746   -5.776814496200    0.000000000000
 H   -3.826591166746   -5.038251496200    0.000000000000
CS    2.559758516656    2.395088111359    0.000000000000
