26

 C   -5.769059942046    0.014954567048    0.000000000000
 H   -6.857259942046    0.078254567048    0.000000000000
 C   -4.962029942046    1.158044567048    0.000000000000
 H   -5.476939942046    2.129804567048    0.000000000000
 C   -5.125119942046   -1.230285432952    0.000000000000
 H   -5.711319942046   -2.161405432952    0.000000000000
 C   -3.549269942046    1.070114567048    0.000000000000
 H   -2.999279942046    2.016914567048    0.000000000000
 C   -3.718599942046   -1.355435432952    0.000000000000
 H   -3.205619942046   -2.314025432952    0.000000000000
 C   -2.876089942046   -0.188795432952    0.000000000000
 O   -1.556669942046   -0.338295432952    0.000000000000
RB   -0.002419942046   -0.000525432952    2.166340000000
RB   -0.002419942046   -0.000525432952   -2.166340000000
 O    1.561085297328    0.339255917991    0.000000000000
 C    2.880502338030    0.189753903602    0.000000000000
 C    3.723015426297    1.356400970928    0.000000000000
 H    3.210031663922    2.314991075164    0.000000000000
 C    5.129537878455    1.231242998853    0.000000000000
 H    5.715731768357    2.162367481316    0.000000000000
 C    5.773483318023   -0.013999886274    0.000000000000
 H    6.861674078634   -0.077294984202    0.000000000000
 C    4.966447052079   -1.157087371268    0.000000000000
 H    5.481364899738   -2.128843345092    0.000000000000
 C    3.553690907626   -1.069155486204    0.000000000000
 H    3.003697293768   -2.015962977891    0.000000000000
