26

 C   -5.794604796243    0.009403152924    0.000000000000
 H   -6.882804796243    0.072703152924    0.000000000000
 C   -4.987574796243    1.152493152924    0.000000000000
 H   -5.502484796243    2.124253152924    0.000000000000
 C   -5.150664796243   -1.235836847076    0.000000000000
 H   -5.736864796243   -2.166956847076    0.000000000000
 C   -3.574814796243    1.064563152924    0.000000000000
 H   -3.024824796243    2.011363152924    0.000000000000
 C   -3.744144796243   -1.360986847076    0.000000000000
 H   -3.231164796243   -2.319576847076    0.000000000000
 C   -2.901634796243   -0.194346847076    0.000000000000
 O   -1.582214796243   -0.343846847076    0.000000000000
RB   -0.027964796243   -0.006076847076    2.166340000000
RB   -0.027964796243   -0.006076847076   -2.166340000000
 O    1.633259520593    0.354940838302    0.000000000000
 C    2.952676561294    0.205438823912    0.000000000000
 C    3.795189649561    1.372085891238    0.000000000000
 H    3.282205887186    2.330675995474    0.000000000000
 C    5.201712101720    1.246927919163    0.000000000000
 H    5.787905991621    2.178052401626    0.000000000000
 C    5.845657541288    0.001685034036    0.000000000000
 H    6.933848301898   -0.061610063892    0.000000000000
 C    5.038621275343   -1.141402450958    0.000000000000
 H    5.553539123002   -2.113158424782    0.000000000000
 C    3.625865130891   -1.053470565894    0.000000000000
 H    3.075871517032   -2.000278057581    0.000000000000
