26

 C   -5.845694504635   -0.001699675323    0.000000000000
 H   -6.933894504635    0.061600324677    0.000000000000
 C   -5.038664504635    1.141390324677    0.000000000000
 H   -5.553574504635    2.113150324677    0.000000000000
 C   -5.201754504635   -1.246939675323    0.000000000000
 H   -5.787954504635   -2.178059675323    0.000000000000
 C   -3.625904504635    1.053460324677    0.000000000000
 H   -3.075914504635    2.000260324677    0.000000000000
 C   -3.795234504635   -1.372089675323    0.000000000000
 H   -3.282254504635   -2.330679675323    0.000000000000
 C   -2.952724504635   -0.205449675323    0.000000000000
 O   -1.633304504635   -0.354949675323    0.000000000000
RB   -0.079054504635   -0.017179675323    2.166340000000
RB   -0.079054504635   -0.017179675323   -2.166340000000
 O    1.777607967122    0.386310678922    0.000000000000
 C    3.097025007823    0.236808664533    0.000000000000
 C    3.939538096090    1.403455731858    0.000000000000
 H    3.426554333715    2.362045836094    0.000000000000
 C    5.346060548249    1.278297759783    0.000000000000
 H    5.932254438150    2.209422242246    0.000000000000
 C    5.990005987817    0.033054874656    0.000000000000
 H    7.078196748427   -0.030240223271    0.000000000000
 C    5.182969721872   -1.110032610338    0.000000000000
 H    5.697887569531   -2.081788584162    0.000000000000
 C    3.770213577420   -1.022100725273    0.000000000000
 H    3.220219963561   -1.968908216961    0.000000000000
