26

 C   -7.911620999468   -0.423063810502    0.000000000000
 H   -8.999820999468   -0.359763810502    0.000000000000
 C   -7.104590999468    0.720026189498    0.000000000000
 H   -7.619500999468    1.691786189498    0.000000000000
 C   -7.267680999468   -1.668303810502    0.000000000000
 H   -7.853880999468   -2.599423810502    0.000000000000
 C   -5.691830999468    0.632096189498    0.000000000000
 H   -5.141840999468    1.578896189498    0.000000000000
 C   -5.861160999468   -1.793453810502    0.000000000000
 H   -5.348180999468   -2.752043810502    0.000000000000
 C   -5.018650999468   -0.626813810502    0.000000000000
 O   -3.699230999468   -0.776313810502    0.000000000000
RB   -2.144980999468   -0.438543810502    2.166340000000
RB   -2.144980999468   -0.438543810502   -2.166340000000
 O    7.626926746622    1.685089632893    0.000000000000
 C    8.946343787324    1.535587618503    0.000000000000
 C    9.506464948656    0.210009266150    0.000000000000
 H    8.792006226848   -0.609500381891    0.000000000000
 C   10.905332194442    0.017290935243    0.000000000000
 H   11.268329618580   -1.021385601735    0.000000000000
 C   11.811569702905    1.086883918744    0.000000000000
 H   12.886334190061    0.905096410794    0.000000000000
 C   11.280754586947    2.381562197534    0.000000000000
 H   12.000044166004    3.213471185321    0.000000000000
 C    9.884140862181    2.611957605248    0.000000000000
 H    9.559934953999    3.657819895753    0.000000000000
