26

 C   -5.871239358832   -0.007251089447    0.000000000000
 H   -6.959439358832    0.056048910553    0.000000000000
 C   -5.064209358832    1.135838910553    0.000000000000
 H   -5.579119358832    2.107598910553    0.000000000000
 C   -5.227299358832   -1.252491089447    0.000000000000
 H   -5.813499358832   -2.183611089447    0.000000000000
 C   -3.651449358832    1.047908910553    0.000000000000
 H   -3.101459358832    1.994708910553    0.000000000000
 C   -3.820779358832   -1.377641089447    0.000000000000
 H   -3.307799358832   -2.336231089447    0.000000000000
 C   -2.978269358832   -0.211001089447    0.000000000000
 O   -1.658849358832   -0.360501089447    0.000000000000
RB   -0.104599358832   -0.022731089447    2.166340000000
RB   -0.104599358832   -0.022731089447   -2.166340000000
 O    1.849782190386    0.401995599232    0.000000000000
 C    3.169199231088    0.252493584843    0.000000000000
 C    4.011712319355    1.419140652168    0.000000000000
 H    3.498728556980    2.377730756404    0.000000000000
 C    5.418234771513    1.293982680093    0.000000000000
 H    6.004428661415    2.225107162556    0.000000000000
 C    6.062180211081    0.048739794966    0.000000000000
 H    7.150370971692   -0.014555302961    0.000000000000
 C    5.255143945137   -1.094347690028    0.000000000000
 H    5.770061792796   -2.066103663851    0.000000000000
 C    3.842387800684   -1.006415804963    0.000000000000
 H    3.292394186826   -1.953223296650    0.000000000000
