26

 C   -5.919122372146    0.009946491155    0.000000000000
 H   -7.007322372146    0.073246491155    0.000000000000
 C   -5.112092372146    1.153036491155    0.000000000000
 H   -5.627002372146    2.124796491155    0.000000000000
 C   -5.275182372146   -1.235293508845    0.000000000000
 H   -5.861382372146   -2.166413508845    0.000000000000
 C   -3.699332372146    1.065106491155    0.000000000000
 H   -3.149342372146    2.011906491155    0.000000000000
 C   -3.868662372146   -1.360443508845    0.000000000000
 H   -3.355682372146   -2.319033508845    0.000000000000
 C   -3.026152372146   -0.193803508845    0.000000000000
 O   -1.706732372146   -0.343303508845    0.000000000000
RB   -0.152482372146   -0.005533508845    2.166340000000
RB   -0.152482372146   -0.005533508845   -2.166340000000
 O    1.997337331994    0.461665848702    0.000000000000
 C    3.316754372695    0.312163834312    0.000000000000
 C    3.876875534027   -1.013414518041    0.000000000000
 H    3.162416812220   -1.832924166082    0.000000000000
 C    5.275742779813   -1.206132848948    0.000000000000
 H    5.638740203952   -2.244809385926    0.000000000000
 C    6.181980288276   -0.136539865447    0.000000000000
 H    7.256744775433   -0.318327373397    0.000000000000
 C    5.651165172318    1.158138413343    0.000000000000
 H    6.370454751375    1.990047401130    0.000000000000
 C    4.254551447553    1.388533821057    0.000000000000
 H    3.930345539371    2.434396111562    0.000000000000
