26

 C   -6.097936351521   -0.028913407712    0.000000000000
 H   -7.186136351521    0.034386592288    0.000000000000
 C   -5.290906351521    1.114176592288    0.000000000000
 H   -5.805816351521    2.085936592288    0.000000000000
 C   -5.453996351521   -1.274153407712    0.000000000000
 H   -6.040196351521   -2.205273407712    0.000000000000
 C   -3.878146351521    1.026246592288    0.000000000000
 H   -3.328156351521    1.973046592288    0.000000000000
 C   -4.047476351521   -1.399303407712    0.000000000000
 H   -3.534496351521   -2.357893407712    0.000000000000
 C   -3.204966351521   -0.232663407712    0.000000000000
 O   -1.885546351521   -0.382163407712    0.000000000000
RB   -0.331296351521   -0.044393407712    2.166340000000
RB   -0.331296351521   -0.044393407712   -2.166340000000
 O    2.502556894845    0.571460290873    0.000000000000
 C    3.821973935546    0.421958276483    0.000000000000
 C    4.382095096879   -0.903620075870    0.000000000000
 H    3.667636375071   -1.723129723911    0.000000000000
 C    5.780962342664   -1.096338406777    0.000000000000
 H    6.143959766803   -2.135014943755    0.000000000000
 C    6.687199851127   -0.026745423276    0.000000000000
 H    7.761964338284   -0.208532931226    0.000000000000
 C    6.156384735170    1.267932855514    0.000000000000
 H    6.875674314227    2.099841843301    0.000000000000
 C    4.759771010404    1.498328263228    0.000000000000
 H    4.435565102222    2.544190553733    0.000000000000
