26

 C   -6.174570914110   -0.045567650083    0.000000000000
 H   -7.262770914110    0.017732349917    0.000000000000
 C   -5.367540914110    1.097522349917    0.000000000000
 H   -5.882450914110    2.069282349917    0.000000000000
 C   -5.530630914110   -1.290807650083    0.000000000000
 H   -6.116830914110   -2.221927650083    0.000000000000
 C   -3.954780914110    1.009592349917    0.000000000000
 H   -3.404790914110    1.956392349917    0.000000000000
 C   -4.124110914110   -1.415957650083    0.000000000000
 H   -3.611130914110   -2.374547650083    0.000000000000
 C   -3.281600914110   -0.249317650083    0.000000000000
 O   -1.962180914110   -0.398817650083    0.000000000000
RB   -0.407930914110   -0.061047650083    2.166340000000
RB   -0.407930914110   -0.061047650083   -2.166340000000
 O    2.719079564638    0.618515051803    0.000000000000
 C    4.038496605340    0.469013037414    0.000000000000
 C    4.598617766672   -0.856565314940    0.000000000000
 H    3.884159044864   -1.676074962981    0.000000000000
 C    5.997485012458   -1.049283645847    0.000000000000
 H    6.360482436596   -2.087960182825    0.000000000000
 C    6.903722520921    0.020309337654    0.000000000000
 H    7.978487008077   -0.161478170296    0.000000000000
 C    6.372907404963    1.314987616445    0.000000000000
 H    7.092196984020    2.146896604231    0.000000000000
 C    4.976293680197    1.545383024159    0.000000000000
 H    4.652087772015    2.591245314664    0.000000000000
