26

 C   -6.200115768307   -0.051119064207    0.000000000000
 H   -7.288315768307    0.012180935793    0.000000000000
 C   -5.393085768307    1.091970935793    0.000000000000
 H   -5.907995768307    2.063730935793    0.000000000000
 C   -5.556175768307   -1.296359064207    0.000000000000
 H   -6.142375768307   -2.227479064207    0.000000000000
 C   -3.980325768307    1.004040935793    0.000000000000
 H   -3.430335768307    1.950840935793    0.000000000000
 C   -4.149655768307   -1.421509064207    0.000000000000
 H   -3.636675768307   -2.380099064207    0.000000000000
 C   -3.307145768307   -0.254869064207    0.000000000000
 O   -1.987725768307   -0.404369064207    0.000000000000
RB   -0.433475768307   -0.066599064207    2.166340000000
RB   -0.433475768307   -0.066599064207   -2.166340000000
 O    2.791253787903    0.634199972113    0.000000000000
 C    4.110670828604    0.484697957724    0.000000000000
 C    4.670791989937   -0.840880394629    0.000000000000
 H    3.956333268129   -1.660390042671    0.000000000000
 C    6.069659235722   -1.033598725537    0.000000000000
 H    6.432656659861   -2.072275262515    0.000000000000
 C    6.975896744185    0.035994257965    0.000000000000
 H    8.050661231342   -0.145793249986    0.000000000000
 C    6.445081628228    1.330672536755    0.000000000000
 H    7.164371207285    2.162581524541    0.000000000000
 C    5.048467903462    1.561067944469    0.000000000000
 H    4.724261995280    2.606930234974    0.000000000000
