26

 C   -6.225660622503   -0.056670478331    0.000000000000
 H   -7.313860622503    0.006629521669    0.000000000000
 C   -5.418630622503    1.086419521669    0.000000000000
 H   -5.933540622503    2.058179521669    0.000000000000
 C   -5.581720622503   -1.301910478331    0.000000000000
 H   -6.167920622503   -2.233030478331    0.000000000000
 C   -4.005870622503    0.998489521669    0.000000000000
 H   -3.455880622503    1.945289521669    0.000000000000
 C   -4.175200622503   -1.427060478331    0.000000000000
 H   -3.662220622503   -2.385650478331    0.000000000000
 C   -3.332690622503   -0.260420478331    0.000000000000
 O   -2.013270622503   -0.409920478331    0.000000000000
RB   -0.459020622503   -0.072150478331    2.166340000000
RB   -0.459020622503   -0.072150478331   -2.166340000000
 O    2.863428011167    0.649884892423    0.000000000000
 C    4.182845051869    0.500382878034    0.000000000000
 C    4.742966213201   -0.825195474319    0.000000000000
 H    4.028507491393   -1.644705122361    0.000000000000
 C    6.141833458987   -1.017913805227    0.000000000000
 H    6.504830883125   -2.056590342205    0.000000000000
 C    7.048070967450    0.051679178275    0.000000000000
 H    8.122835454606   -0.130108329676    0.000000000000
 C    6.517255851492    1.346357457065    0.000000000000
 H    7.236545430549    2.178266444851    0.000000000000
 C    5.120642126726    1.576752864779    0.000000000000
 H    4.796436218544    2.622615155284    0.000000000000
