26

 C   -6.251205476700   -0.062221892455    0.000000000000
 H   -7.339405476700    0.001078107545    0.000000000000
 C   -5.444175476700    1.080868107545    0.000000000000
 H   -5.959085476700    2.052628107545    0.000000000000
 C   -5.607265476700   -1.307461892455    0.000000000000
 H   -6.193465476700   -2.238581892455    0.000000000000
 C   -4.031415476700    0.992938107545    0.000000000000
 H   -3.481425476700    1.939738107545    0.000000000000
 C   -4.200745476700   -1.432611892455    0.000000000000
 H   -3.687765476700   -2.391201892455    0.000000000000
 C   -3.358235476700   -0.265971892455    0.000000000000
 O   -2.038815476700   -0.415471892455    0.000000000000
RB   -0.484565476700   -0.077701892455    2.166340000000
RB   -0.484565476700   -0.077701892455   -2.166340000000
 O    2.935602234432    0.665569812733    0.000000000000
 C    4.255019275133    0.516067798344    0.000000000000
 C    4.815140436465   -0.809510554009    0.000000000000
 H    4.100681714658   -1.629020202050    0.000000000000
 C    6.214007682251   -1.002228884916    0.000000000000
 H    6.577005106390   -2.040905421894    0.000000000000
 C    7.120245190714    0.067364098585    0.000000000000
 H    8.195009677871   -0.114423409365    0.000000000000
 C    6.589430074756    1.362042377375    0.000000000000
 H    7.308719653814    2.193951365161    0.000000000000
 C    5.192816349991    1.592437785089    0.000000000000
 H    4.868610441809    2.638300075594    0.000000000000
