26

 C   -6.302295185093   -0.073324720702    0.000000000000
 H   -7.390495185093   -0.010024720702    0.000000000000
 C   -5.495265185093    1.069765279298    0.000000000000
 H   -6.010175185093    2.041525279298    0.000000000000
 C   -5.658355185093   -1.318564720702    0.000000000000
 H   -6.244555185093   -2.249684720702    0.000000000000
 C   -4.082505185093    0.981835279298    0.000000000000
 H   -3.532515185093    1.928635279298    0.000000000000
 C   -4.251835185093   -1.443714720702    0.000000000000
 H   -3.738855185093   -2.402304720702    0.000000000000
 C   -3.409325185093   -0.277074720702    0.000000000000
 O   -2.089905185093   -0.426574720702    0.000000000000
RB   -0.535655185093   -0.088804720702    2.166340000000
RB   -0.535655185093   -0.088804720702   -2.166340000000
 O    3.079950680961    0.696939653354    0.000000000000
 C    4.399367721662    0.547437638964    0.000000000000
 C    4.959488882994   -0.778140713389    0.000000000000
 H    4.245030161187   -1.597650361430    0.000000000000
 C    6.358356128780   -0.970859044296    0.000000000000
 H    6.721353552919   -2.009535581274    0.000000000000
 C    7.264593637243    0.098733939205    0.000000000000
 H    8.339358124400   -0.083053568745    0.000000000000
 C    6.733778521285    1.393412217995    0.000000000000
 H    7.453068100342    2.225321205782    0.000000000000
 C    5.337164796520    1.623807625709    0.000000000000
 H    5.012958888338    2.669669916214    0.000000000000
