26

 C   -6.353384893486   -0.084427548950    0.000000000000
 H   -7.441584893486   -0.021127548950    0.000000000000
 C   -5.546354893486    1.058662451050    0.000000000000
 H   -6.061264893486    2.030422451050    0.000000000000
 C   -5.709444893486   -1.329667548950    0.000000000000
 H   -6.295644893486   -2.260787548950    0.000000000000
 C   -4.133594893486    0.970732451050    0.000000000000
 H   -3.583604893486    1.917532451050    0.000000000000
 C   -4.302924893486   -1.454817548950    0.000000000000
 H   -3.789944893486   -2.413407548950    0.000000000000
 C   -3.460414893486   -0.288177548950    0.000000000000
 O   -2.140994893486   -0.437677548950    0.000000000000
RB   -0.586744893486   -0.099907548950    2.166340000000
RB   -0.586744893486   -0.099907548950   -2.166340000000
 O    3.224299127490    0.728309493974    0.000000000000
 C    4.543716168191    0.578807479585    0.000000000000
 C    5.103837329523   -0.746770872769    0.000000000000
 H    4.389378607716   -1.566280520810    0.000000000000
 C    6.502704575309   -0.939489203676    0.000000000000
 H    6.865701999448   -1.978165740654    0.000000000000
 C    7.408942083772    0.130103779825    0.000000000000
 H    8.483706570929   -0.051683728125    0.000000000000
 C    6.878126967814    1.424782058616    0.000000000000
 H    7.597416546871    2.256691046402    0.000000000000
 C    5.481513243049    1.655177466330    0.000000000000
 H    5.157307334867    2.701039756835    0.000000000000
