26

 C   -6.430019456075   -0.101081791322    0.000000000000
 H   -7.518219456075   -0.037781791322    0.000000000000
 C   -5.622989456075    1.042008208678    0.000000000000
 H   -6.137899456075    2.013768208678    0.000000000000
 C   -5.786079456075   -1.346321791322    0.000000000000
 H   -6.372279456075   -2.277441791322    0.000000000000
 C   -4.210229456075    0.954078208678    0.000000000000
 H   -3.660239456075    1.900878208678    0.000000000000
 C   -4.379559456075   -1.471471791322    0.000000000000
 H   -3.866579456075   -2.430061791322    0.000000000000
 C   -3.537049456075   -0.304831791322    0.000000000000
 O   -2.217629456075   -0.454331791322    0.000000000000
RB   -0.663379456075   -0.116561791322    2.166340000000
RB   -0.663379456075   -0.116561791322   -2.166340000000
 O    3.440821797283    0.775364254904    0.000000000000
 C    4.760238837985    0.625862240515    0.000000000000
 C    5.320359999317   -0.699716111838    0.000000000000
 H    4.605901277509   -1.519225759879    0.000000000000
 C    6.719227245103   -0.892434442745    0.000000000000
 H    7.082224669241   -1.931110979723    0.000000000000
 C    7.625464753565    0.177158540756    0.000000000000
 H    8.700229240722   -0.004628967194    0.000000000000
 C    7.094649637608    1.471836819546    0.000000000000
 H    7.813939216665    2.303745807332    0.000000000000
 C    5.698035912842    1.702232227260    0.000000000000
 H    5.373830004660    2.748094517765    0.000000000000
