26

 C   -6.455564310271   -0.106633205445    0.000000000000
 H   -7.543764310271   -0.043333205445    0.000000000000
 C   -5.648534310271    1.036456794555    0.000000000000
 H   -6.163444310271    2.008216794555    0.000000000000
 C   -5.811624310271   -1.351873205445    0.000000000000
 H   -6.397824310271   -2.282993205445    0.000000000000
 C   -4.235774310271    0.948526794555    0.000000000000
 H   -3.685784310271    1.895326794555    0.000000000000
 C   -4.405104310271   -1.477023205445    0.000000000000
 H   -3.892124310271   -2.435613205445    0.000000000000
 C   -3.562594310271   -0.310383205445    0.000000000000
 O   -2.243174310271   -0.459883205445    0.000000000000
RB   -0.688924310271   -0.122113205445    2.166340000000
RB   -0.688924310271   -0.122113205445   -2.166340000000
 O    3.512996020547    0.791049175215    0.000000000000
 C    4.832413061249    0.641547160825    0.000000000000
 C    5.392534222581   -0.684031191528    0.000000000000
 H    4.678075500773   -1.503540839569    0.000000000000
 C    6.791401468367   -0.876749522435    0.000000000000
 H    7.154398892506   -1.915426059413    0.000000000000
 C    7.697638976830    0.192843461066    0.000000000000
 H    8.772403463987    0.011055953116    0.000000000000
 C    7.166823860872    1.487521739856    0.000000000000
 H    7.886113439929    2.319430727643    0.000000000000
 C    5.770210136106    1.717917147570    0.000000000000
 H    5.446004227924    2.763779438075    0.000000000000
