26

 C   -6.506654018664   -0.117736033693    0.000000000000
 H   -7.594854018664   -0.054436033693    0.000000000000
 C   -5.699624018664    1.025353966307    0.000000000000
 H   -6.214534018664    1.997113966307    0.000000000000
 C   -5.862714018664   -1.362976033693    0.000000000000
 H   -6.448914018664   -2.294096033693    0.000000000000
 C   -4.286864018664    0.937423966307    0.000000000000
 H   -3.736874018664    1.884223966307    0.000000000000
 C   -4.456194018664   -1.488126033693    0.000000000000
 H   -3.943214018664   -2.446716033693    0.000000000000
 C   -3.613684018664   -0.321486033693    0.000000000000
 O   -2.294264018664   -0.470986033693    0.000000000000
RB   -0.740014018664   -0.133216033693    2.166340000000
RB   -0.740014018664   -0.133216033693   -2.166340000000
 O    3.657344467076    0.822419015835    0.000000000000
 C    4.976761507778    0.672917001446    0.000000000000
 C    5.536882669110   -0.652661350908    0.000000000000
 H    4.822423947302   -1.472170998949    0.000000000000
 C    6.935749914896   -0.845379681815    0.000000000000
 H    7.298747339034   -1.884056218793    0.000000000000
 C    7.841987423359    0.224213301686    0.000000000000
 H    8.916751910515    0.042425793736    0.000000000000
 C    7.311172307401    1.518891580476    0.000000000000
 H    8.030461886458    2.350800568263    0.000000000000
 C    5.914558582635    1.749286988191    0.000000000000
 H    5.590352674453    2.795149278695    0.000000000000
