26

 C   -6.532198872861   -0.123287447817    0.000000000000
 H   -7.620398872861   -0.059987447817    0.000000000000
 C   -5.725168872861    1.019802552183    0.000000000000
 H   -6.240078872861    1.991562552183    0.000000000000
 C   -5.888258872861   -1.368527447817    0.000000000000
 H   -6.474458872861   -2.299647447817    0.000000000000
 C   -4.312408872861    0.931872552183    0.000000000000
 H   -3.762418872861    1.878672552183    0.000000000000
 C   -4.481738872861   -1.493677447817    0.000000000000
 H   -3.968758872861   -2.452267447817    0.000000000000
 C   -3.639228872861   -0.327037447817    0.000000000000
 O   -2.319808872861   -0.476537447817    0.000000000000
RB   -0.765558872861   -0.138767447817    2.166340000000
RB   -0.765558872861   -0.138767447817   -2.166340000000
 O    3.729518690341    0.838103936145    0.000000000000
 C    5.048935731042    0.688601921756    0.000000000000
 C    5.609056892375   -0.636976430598    0.000000000000
 H    4.894598170567   -1.456486078639    0.000000000000
 C    7.007924138160   -0.829694761505    0.000000000000
 H    7.370921562299   -1.868371298483    0.000000000000
 C    7.914161646623    0.239898221996    0.000000000000
 H    8.988926133780    0.058110714046    0.000000000000
 C    7.383346530666    1.534576500787    0.000000000000
 H    8.102636109723    2.366485488573    0.000000000000
 C    5.986732805900    1.764971908501    0.000000000000
 H    5.662526897718    2.810834199006    0.000000000000
