26

 C   -6.608833435450   -0.139941690188    0.000000000000
 H   -7.697033435450   -0.076641690188    0.000000000000
 C   -5.801803435450    1.003148309812    0.000000000000
 H   -6.316713435450    1.974908309812    0.000000000000
 C   -5.964893435450   -1.385181690188    0.000000000000
 H   -6.551093435450   -2.316301690188    0.000000000000
 C   -4.389043435450    0.915218309812    0.000000000000
 H   -3.839053435450    1.862018309812    0.000000000000
 C   -4.558373435450   -1.510331690188    0.000000000000
 H   -4.045393435450   -2.468921690188    0.000000000000
 C   -3.715863435450   -0.343691690188    0.000000000000
 O   -2.396443435450   -0.493191690188    0.000000000000
RB   -0.842193435450   -0.155421690188    2.166340000000
RB   -0.842193435450   -0.155421690188   -2.166340000000
 O    3.946041360134    0.885158697075    0.000000000000
 C    5.265458400836    0.735656682686    0.000000000000
 C    5.825579562168   -0.589921669667    0.000000000000
 H    5.111120840360   -1.409431317708    0.000000000000
 C    7.224446807954   -0.782640000574    0.000000000000
 H    7.587444232092   -1.821316537552    0.000000000000
 C    8.130684316417    0.286952982927    0.000000000000
 H    9.205448803573    0.105165474977    0.000000000000
 C    7.599869200459    1.581631261717    0.000000000000
 H    8.319158779516    2.413540249503    0.000000000000
 C    6.203255475693    1.812026669431    0.000000000000
 H    5.879049567511    2.857888959936    0.000000000000
