26

 C   -6.813192269021   -0.184353003179    0.000000000000
 H   -7.901392269021   -0.121053003179    0.000000000000
 C   -6.006162269021    0.958736996821    0.000000000000
 H   -6.521072269021    1.930496996821    0.000000000000
 C   -6.169252269021   -1.429593003179    0.000000000000
 H   -6.755452269021   -2.360713003179    0.000000000000
 C   -4.593402269021    0.870806996821    0.000000000000
 H   -4.043412269021    1.817606996821    0.000000000000
 C   -4.762732269021   -1.554743003179    0.000000000000
 H   -4.249752269021   -2.513333003179    0.000000000000
 C   -3.920222269021   -0.388103003179    0.000000000000
 O   -2.600802269021   -0.537603003179    0.000000000000
RB   -1.046552269021   -0.199833003179    2.166340000000
RB   -1.046552269021   -0.199833003179   -2.166340000000
 O    4.523435146250    1.010638059557    0.000000000000
 C    5.842852186952    0.861136045167    0.000000000000
 C    6.402973348284   -0.464442307186    0.000000000000
 H    5.688514626476   -1.283951955227    0.000000000000
 C    7.801840594070   -0.657160638093    0.000000000000
 H    8.164838018208   -1.695837175071    0.000000000000
 C    8.708078102532    0.412432345408    0.000000000000
 H    9.782842589689    0.230644837458    0.000000000000
 C    8.177262986575    1.707110624198    0.000000000000
 H    8.896552565632    2.539019611985    0.000000000000
 C    6.780649261809    1.937506031912    0.000000000000
 H    6.456443353627    2.983368322417    0.000000000000
