26

 C   -6.940916540003   -0.212110073798    0.000000000000
 H   -8.029116540003   -0.148810073798    0.000000000000
 C   -6.133886540003    0.930979926202    0.000000000000
 H   -6.648796540003    1.902739926202    0.000000000000
 C   -6.296976540003   -1.457350073798    0.000000000000
 H   -6.883176540003   -2.388470073798    0.000000000000
 C   -4.721126540003    0.843049926202    0.000000000000
 H   -4.171136540003    1.789849926202    0.000000000000
 C   -4.890456540003   -1.582500073798    0.000000000000
 H   -4.377476540003   -2.541090073798    0.000000000000
 C   -4.047946540003   -0.415860073798    0.000000000000
 O   -2.728526540003   -0.565360073798    0.000000000000
RB   -1.174276540003   -0.227590073798    2.166340000000
RB   -1.174276540003   -0.227590073798   -2.166340000000
 O    4.884306262572    1.089062661107    0.000000000000
 C    6.203723303274    0.939560646718    0.000000000000
 C    6.763844464606   -0.386017705635    0.000000000000
 H    6.049385742798   -1.205527353677    0.000000000000
 C    8.162711710392   -0.578736036543    0.000000000000
 H    8.525709134530   -1.617412573521    0.000000000000
 C    9.068949218855    0.490856946959    0.000000000000
 H   10.143713706011    0.309069439008    0.000000000000
 C    8.538134102897    1.785535225749    0.000000000000
 H    9.257423681954    2.617444213535    0.000000000000
 C    7.141520378131    2.015930633463    0.000000000000
 H    6.817314469949    3.061792923968    0.000000000000
