26

 C   -6.992006248396   -0.223212902045    0.000000000000
 H   -8.080206248396   -0.159912902045    0.000000000000
 C   -6.184976248396    0.919877097955    0.000000000000
 H   -6.699886248396    1.891637097955    0.000000000000
 C   -6.348066248396   -1.468452902045    0.000000000000
 H   -6.934266248396   -2.399572902045    0.000000000000
 C   -4.772216248396    0.831947097955    0.000000000000
 H   -4.222226248396    1.778747097955    0.000000000000
 C   -4.941546248396   -1.593602902045    0.000000000000
 H   -4.428566248396   -2.552192902045    0.000000000000
 C   -4.099036248396   -0.426962902045    0.000000000000
 O   -2.779616248396   -0.576462902045    0.000000000000
RB   -1.225366248396   -0.238692902045    2.166340000000
RB   -1.225366248396   -0.238692902045   -2.166340000000
 O    5.028654709101    1.120432501728    0.000000000000
 C    6.348071749803    0.970930487338    0.000000000000
 C    6.908192911135   -0.354647865015    0.000000000000
 H    6.193734189327   -1.174157513056    0.000000000000
 C    8.307060156921   -0.547366195922    0.000000000000
 H    8.670057581059   -1.586042732900    0.000000000000
 C    9.213297665384    0.522226787579    0.000000000000
 H   10.288062152540    0.340439279629    0.000000000000
 C    8.682482549426    1.816905066369    0.000000000000
 H    9.401772128483    2.648814054156    0.000000000000
 C    7.285868824660    2.047300474083    0.000000000000
 H    6.961662916478    3.093162764588    0.000000000000
