26

 C   -7.272999644557   -0.284278457407    0.000000000000
 H   -8.361199644557   -0.220978457407    0.000000000000
 C   -6.465969644557    0.858811542593    0.000000000000
 H   -6.980879644557    1.830571542593    0.000000000000
 C   -6.629059644557   -1.529518457407    0.000000000000
 H   -7.215259644557   -2.460638457407    0.000000000000
 C   -5.053209644557    0.770881542593    0.000000000000
 H   -4.503219644557    1.717681542593    0.000000000000
 C   -5.222539644557   -1.654668457407    0.000000000000
 H   -4.709559644557   -2.613258457407    0.000000000000
 C   -4.380029644557   -0.488028457407    0.000000000000
 O   -3.060609644557   -0.637528457407    0.000000000000
RB   -1.506359644557   -0.299758457407    2.166340000000
RB   -1.506359644557   -0.299758457407   -2.166340000000
 O    5.822571165010    1.292966625139    0.000000000000
 C    7.141988205712    1.143464610750    0.000000000000
 C    7.702109367044   -0.182113741603    0.000000000000
 H    6.987650645236   -1.001623389645    0.000000000000
 C    9.100976612830   -0.374832072511    0.000000000000
 H    9.463974036968   -1.413508609489    0.000000000000
 C   10.007214121293    0.694760910991    0.000000000000
 H   11.081978608450    0.512973403040    0.000000000000
 C    9.476399005335    1.989439189781    0.000000000000
 H   10.195688584392    2.821348177567    0.000000000000
 C    8.079785280569    2.219834597495    0.000000000000
 H    7.755579372387    3.265696888000    0.000000000000
