26

 C   -7.324089352950   -0.295381285655    0.000000000000
 H   -8.412289352950   -0.232081285655    0.000000000000
 C   -6.517059352950    0.847708714345    0.000000000000
 H   -7.031969352950    1.819468714345    0.000000000000
 C   -6.680149352950   -1.540621285655    0.000000000000
 H   -7.266349352950   -2.471741285655    0.000000000000
 C   -5.104299352950    0.759778714345    0.000000000000
 H   -4.554309352950    1.706578714345    0.000000000000
 C   -5.273629352950   -1.665771285655    0.000000000000
 H   -4.760649352950   -2.624361285655    0.000000000000
 C   -4.431119352950   -0.499131285655    0.000000000000
 O   -3.111699352950   -0.648631285655    0.000000000000
RB   -1.557449352950   -0.310861285655    2.166340000000
RB   -1.557449352950   -0.310861285655   -2.166340000000
 O    5.966919611539    1.324336465759    0.000000000000
 C    7.286336652241    1.174834451370    0.000000000000
 C    7.846457813573   -0.150743900983    0.000000000000
 H    7.131999091765   -0.970253549024    0.000000000000
 C    9.245325059359   -0.343462231890    0.000000000000
 H    9.608322483497   -1.382138768868    0.000000000000
 C   10.151562567822    0.726130751611    0.000000000000
 H   11.226327054978    0.544343243661    0.000000000000
 C    9.620747451864    2.020809030401    0.000000000000
 H   10.340037030921    2.852718018187    0.000000000000
 C    8.224133727098    2.251204438115    0.000000000000
 H    7.899927818916    3.297066728620    0.000000000000
