26

 C   -7.349634207146   -0.300932699779    0.000000000000
 H   -8.437834207146   -0.237632699779    0.000000000000
 C   -6.542604207146    0.842157300221    0.000000000000
 H   -7.057514207146    1.813917300221    0.000000000000
 C   -6.705694207146   -1.546172699779    0.000000000000
 H   -7.291894207146   -2.477292699779    0.000000000000
 C   -5.129844207146    0.754227300221    0.000000000000
 H   -4.579854207146    1.701027300221    0.000000000000
 C   -5.299174207146   -1.671322699779    0.000000000000
 H   -4.786194207146   -2.629912699779    0.000000000000
 C   -4.456664207146   -0.504682699779    0.000000000000
 O   -3.137244207146   -0.654182699779    0.000000000000
RB   -1.582994207146   -0.316412699779    2.166340000000
RB   -1.582994207146   -0.316412699779   -2.166340000000
 O    6.039093834804    1.340021386070    0.000000000000
 C    7.358510875505    1.190519371680    0.000000000000
 C    7.918632036838   -0.135058980673    0.000000000000
 H    7.204173315030   -0.954568628714    0.000000000000
 C    9.317499282623   -0.327777311580    0.000000000000
 H    9.680496706762   -1.366453848558    0.000000000000
 C   10.223736791086    0.741815671921    0.000000000000
 H   11.298501278243    0.560028163971    0.000000000000
 C    9.692921675129    2.036493950711    0.000000000000
 H   10.412211254186    2.868402938498    0.000000000000
 C    8.296307950363    2.266889358425    0.000000000000
 H    7.972102042181    3.312751648930    0.000000000000
