26

 C   -7.400723915539   -0.312035528026    0.000000000000
 H   -8.488923915539   -0.248735528026    0.000000000000
 C   -6.593693915539    0.831054471974    0.000000000000
 H   -7.108603915539    1.802814471974    0.000000000000
 C   -6.756783915539   -1.557275528026    0.000000000000
 H   -7.342983915539   -2.488395528026    0.000000000000
 C   -5.180933915539    0.743124471974    0.000000000000
 H   -4.630943915539    1.689924471974    0.000000000000
 C   -5.350263915539   -1.682425528026    0.000000000000
 H   -4.837283915539   -2.641015528026    0.000000000000
 C   -4.507753915539   -0.515785528026    0.000000000000
 O   -3.188333915539   -0.665285528026    0.000000000000
RB   -1.634083915539   -0.327515528026    2.166340000000
RB   -1.634083915539   -0.327515528026   -2.166340000000
 O    6.183442281333    1.371391226690    0.000000000000
 C    7.502859322034    1.221889212301    0.000000000000
 C    8.062980483367   -0.103689140053    0.000000000000
 H    7.348521761559   -0.923198788094    0.000000000000
 C    9.461847729152   -0.296407470960    0.000000000000
 H    9.824845153291   -1.335084007938    0.000000000000
 C   10.368085237615    0.773185512541    0.000000000000
 H   11.442849724772    0.591398004591    0.000000000000
 C    9.837270121658    2.067863791331    0.000000000000
 H   10.556559700715    2.899772779118    0.000000000000
 C    8.440656396892    2.298259199046    0.000000000000
 H    8.116450488710    3.344121489550    0.000000000000
