26

 C   -7.477358478129   -0.328689770398    0.000000000000
 H   -8.565558478129   -0.265389770398    0.000000000000
 C   -6.670328478129    0.814400229602    0.000000000000
 H   -7.185238478129    1.786160229602    0.000000000000
 C   -6.833418478129   -1.573929770398    0.000000000000
 H   -7.419618478129   -2.505049770398    0.000000000000
 C   -5.257568478129    0.726470229602    0.000000000000
 H   -4.707578478129    1.673270229602    0.000000000000
 C   -5.426898478129   -1.699079770398    0.000000000000
 H   -4.913918478129   -2.657669770398    0.000000000000
 C   -4.584388478129   -0.532439770398    0.000000000000
 O   -3.264968478129   -0.681939770398    0.000000000000
RB   -1.710718478129   -0.344169770398    2.166340000000
RB   -1.710718478129   -0.344169770398   -2.166340000000
 O    6.399964951126    1.418445987620    0.000000000000
 C    7.719381991828    1.268943973231    0.000000000000
 C    8.279503153160   -0.056634379122    0.000000000000
 H    7.565044431352   -0.876144027164    0.000000000000
 C    9.678370398946   -0.249352710030    0.000000000000
 H   10.041367823084   -1.288029247008    0.000000000000
 C   10.584607907409    0.820240273472    0.000000000000
 H   11.659372394565    0.638452765521    0.000000000000
 C   10.053792791451    2.114918552262    0.000000000000
 H   10.773082370508    2.946827540048    0.000000000000
 C    8.657179066685    2.345313959976    0.000000000000
 H    8.332973158503    3.391176250481    0.000000000000
