26

 C   -7.528448186521   -0.339792598645    0.000000000000
 H   -8.616648186521   -0.276492598645    0.000000000000
 C   -6.721418186521    0.803297401355    0.000000000000
 H   -7.236328186521    1.775057401355    0.000000000000
 C   -6.884508186521   -1.585032598645    0.000000000000
 H   -7.470708186521   -2.516152598645    0.000000000000
 C   -5.308658186521    0.715367401355    0.000000000000
 H   -4.758668186521    1.662167401355    0.000000000000
 C   -5.477988186521   -1.710182598645    0.000000000000
 H   -4.965008186521   -2.668772598645    0.000000000000
 C   -4.635478186521   -0.543542598645    0.000000000000
 O   -3.316058186521   -0.693042598645    0.000000000000
RB   -1.761808186521   -0.355272598645    2.166340000000
RB   -1.761808186521   -0.355272598645   -2.166340000000
 O    6.544313397655    1.449815828241    0.000000000000
 C    7.863730438357    1.300313813851    0.000000000000
 C    8.423851599689   -0.025264538502    0.000000000000
 H    7.709392877881   -0.844774186543    0.000000000000
 C    9.822718845475   -0.217982869409    0.000000000000
 H   10.185716269613   -1.256659406387    0.000000000000
 C   10.728956353938    0.851610114092    0.000000000000
 H   11.803720841094    0.669822606142    0.000000000000
 C   10.198141237980    2.146288392882    0.000000000000
 H   10.917430817037    2.978197380669    0.000000000000
 C    8.801527513214    2.376683800596    0.000000000000
 H    8.477321605032    3.422546091101    0.000000000000
