26

 C   -7.553993040718   -0.345344012769    0.000000000000
 H   -8.642193040718   -0.282044012769    0.000000000000
 C   -6.746963040718    0.797745987231    0.000000000000
 H   -7.261873040718    1.769505987231    0.000000000000
 C   -6.910053040718   -1.590584012769    0.000000000000
 H   -7.496253040718   -2.521704012769    0.000000000000
 C   -5.334203040718    0.709815987231    0.000000000000
 H   -4.784213040718    1.656615987231    0.000000000000
 C   -5.503533040718   -1.715734012769    0.000000000000
 H   -4.990553040718   -2.674324012769    0.000000000000
 C   -4.661023040718   -0.549094012769    0.000000000000
 O   -3.341603040718   -0.698594012769    0.000000000000
RB   -1.787353040718   -0.360824012769    2.166340000000
RB   -1.787353040718   -0.360824012769   -2.166340000000
 O    6.616487620920    1.465500748551    0.000000000000
 C    7.935904661621    1.315998734161    0.000000000000
 C    8.496025822953   -0.009579618192    0.000000000000
 H    7.781567101146   -0.829089266233    0.000000000000
 C    9.894893068739   -0.202297949099    0.000000000000
 H   10.257890492878   -1.240974486077    0.000000000000
 C   10.801130577202    0.867295034402    0.000000000000
 H   11.875895064359    0.685507526452    0.000000000000
 C   10.270315461244    2.161973313192    0.000000000000
 H   10.989605040301    2.993882300979    0.000000000000
 C    8.873701736479    2.392368720906    0.000000000000
 H    8.549495828297    3.438231011411    0.000000000000
