26

 C   -7.579537894914   -0.350895426893    0.000000000000
 H   -8.667737894914   -0.287595426893    0.000000000000
 C   -6.772507894914    0.792194573107    0.000000000000
 H   -7.287417894914    1.763954573107    0.000000000000
 C   -6.935597894914   -1.596135426893    0.000000000000
 H   -7.521797894914   -2.527255426893    0.000000000000
 C   -5.359747894914    0.704264573107    0.000000000000
 H   -4.809757894914    1.651064573107    0.000000000000
 C   -5.529077894914   -1.721285426893    0.000000000000
 H   -5.016097894914   -2.679875426893    0.000000000000
 C   -4.686567894914   -0.554645426893    0.000000000000
 O   -3.367147894914   -0.704145426893    0.000000000000
RB   -1.812897894914   -0.366375426893    2.166340000000
RB   -1.812897894914   -0.366375426893   -2.166340000000
 O    6.688661844184    1.481185668861    0.000000000000
 C    8.008078884886    1.331683654472    0.000000000000
 C    8.568200046218    0.006105302118    0.000000000000
 H    7.853741324410   -0.813404345923    0.000000000000
 C    9.967067292004   -0.186613028789    0.000000000000
 H   10.330064716142   -1.225289565767    0.000000000000
 C   10.873304800466    0.882979954712    0.000000000000
 H   11.948069287623    0.701192446762    0.000000000000
 C   10.342489684509    2.177658233502    0.000000000000
 H   11.061779263566    3.009567221289    0.000000000000
 C    8.945875959743    2.408053641217    0.000000000000
 H    8.621670051561    3.453915931721    0.000000000000
