26

 C   -7.605082749111   -0.356446841017    0.000000000000
 H   -8.693282749111   -0.293146841017    0.000000000000
 C   -6.798052749111    0.786643158983    0.000000000000
 H   -7.312962749111    1.758403158983    0.000000000000
 C   -6.961142749111   -1.601686841017    0.000000000000
 H   -7.547342749111   -2.532806841017    0.000000000000
 C   -5.385292749111    0.698713158983    0.000000000000
 H   -4.835302749111    1.645513158983    0.000000000000
 C   -5.554622749111   -1.726836841017    0.000000000000
 H   -5.041642749111   -2.685426841017    0.000000000000
 C   -4.712112749111   -0.560196841017    0.000000000000
 O   -3.392692749111   -0.709696841017    0.000000000000
RB   -1.838442749111   -0.371926841017    2.166340000000
RB   -1.838442749111   -0.371926841017   -2.166340000000
 O    6.760836067449    1.496870589171    0.000000000000
 C    8.080253108150    1.347368574782    0.000000000000
 C    8.640374269482    0.021790222428    0.000000000000
 H    7.925915547674   -0.797719425613    0.000000000000
 C   10.039241515268   -0.170928108479    0.000000000000
 H   10.402238939407   -1.209604645457    0.000000000000
 C   10.945479023731    0.898664875022    0.000000000000
 H   12.020243510888    0.716877367072    0.000000000000
 C   10.414663907773    2.193343153813    0.000000000000
 H   11.133953486830    3.025252141599    0.000000000000
 C    9.018050183007    2.423738561527    0.000000000000
 H    8.693844274826    3.469600852032    0.000000000000
