26

 C   -7.630627603307   -0.361998255141    0.000000000000
 H   -8.718827603307   -0.298698255141    0.000000000000
 C   -6.823597603307    0.781091744859    0.000000000000
 H   -7.338507603307    1.752851744859    0.000000000000
 C   -6.986687603307   -1.607238255141    0.000000000000
 H   -7.572887603307   -2.538358255141    0.000000000000
 C   -5.410837603307    0.693161744859    0.000000000000
 H   -4.860847603307    1.639961744859    0.000000000000
 C   -5.580167603307   -1.732388255141    0.000000000000
 H   -5.067187603307   -2.690978255141    0.000000000000
 C   -4.737657603307   -0.565748255141    0.000000000000
 O   -3.418237603307   -0.715248255141    0.000000000000
RB   -1.863987603307   -0.377478255141    2.166340000000
RB   -1.863987603307   -0.377478255141   -2.166340000000
 O    6.833010290713    1.512555509481    0.000000000000
 C    8.152427331415    1.363053495092    0.000000000000
 C    8.712548492747    0.037475142739    0.000000000000
 H    7.998089770939   -0.782034505303    0.000000000000
 C   10.111415738533   -0.155243188169    0.000000000000
 H   10.474413162671   -1.193919725147    0.000000000000
 C   11.017653246995    0.914349795333    0.000000000000
 H   12.092417734152    0.732562287382    0.000000000000
 C   10.486838131038    2.209028074123    0.000000000000
 H   11.206127710095    3.040937061909    0.000000000000
 C    9.090224406272    2.439423481837    0.000000000000
 H    8.766018498090    3.485285772342    0.000000000000
