26

 C   -7.758351874289   -0.389755325760    0.000000000000
 H   -8.846551874289   -0.326455325760    0.000000000000
 C   -6.951321874289    0.753334674240    0.000000000000
 H   -7.466231874289    1.725094674240    0.000000000000
 C   -7.114411874289   -1.634995325760    0.000000000000
 H   -7.700611874289   -2.566115325760    0.000000000000
 C   -5.538561874289    0.665404674240    0.000000000000
 H   -4.988571874289    1.612204674240    0.000000000000
 C   -5.707891874289   -1.760145325760    0.000000000000
 H   -5.194911874289   -2.718735325760    0.000000000000
 C   -4.865381874289   -0.593505325760    0.000000000000
 O   -3.545961874289   -0.743005325760    0.000000000000
RB   -1.991711874289   -0.405235325760    2.166340000000
RB   -1.991711874289   -0.405235325760   -2.166340000000
 O    7.193881407035    1.590980111032    0.000000000000
 C    8.513298447737    1.441478096643    0.000000000000
 C    9.073419609069    0.115899744289    0.000000000000
 H    8.358960887261   -0.703609903752    0.000000000000
 C   10.472286854855   -0.076818586618    0.000000000000
 H   10.835284278993   -1.115495123596    0.000000000000
 C   11.378524363318    0.992774396883    0.000000000000
 H   12.453288850474    0.810986888933    0.000000000000
 C   10.847709247360    2.287452675673    0.000000000000
 H   11.566998826417    3.119361663460    0.000000000000
 C    9.451095522594    2.517848083388    0.000000000000
 H    9.126889614412    3.563710373892    0.000000000000
