26

 C   -7.809441582682   -0.400858154007    0.000000000000
 H   -8.897641582682   -0.337558154007    0.000000000000
 C   -7.002411582682    0.742231845993    0.000000000000
 H   -7.517321582682    1.713991845993    0.000000000000
 C   -7.165501582682   -1.646098154007    0.000000000000
 H   -7.751701582682   -2.577218154007    0.000000000000
 C   -5.589651582682    0.654301845993    0.000000000000
 H   -5.039661582682    1.601101845993    0.000000000000
 C   -5.758981582682   -1.771248154007    0.000000000000
 H   -5.246001582682   -2.729838154007    0.000000000000
 C   -4.916471582682   -0.604608154007    0.000000000000
 O   -3.597051582682   -0.754108154007    0.000000000000
RB   -2.042801582682   -0.416338154007    2.166340000000
RB   -2.042801582682   -0.416338154007   -2.166340000000
 O    7.338229853564    1.622349951652    0.000000000000
 C    8.657646894266    1.472847937263    0.000000000000
 C    9.217768055598    0.147269584910    0.000000000000
 H    8.503309333790   -0.672240063132    0.000000000000
 C   10.616635301384   -0.045448745998    0.000000000000
 H   10.979632725522   -1.084125282976    0.000000000000
 C   11.522872809847    1.024144237504    0.000000000000
 H   12.597637297003    0.842356729553    0.000000000000
 C   10.992057693889    2.318822516294    0.000000000000
 H   11.711347272946    3.150731504080    0.000000000000
 C    9.595443969123    2.549217924008    0.000000000000
 H    9.271238060941    3.595080214513    0.000000000000
