26

 C   -7.834986436879   -0.406409568131    0.000000000000
 H   -8.923186436879   -0.343109568131    0.000000000000
 C   -7.027956436879    0.736680431869    0.000000000000
 H   -7.542866436879    1.708440431869    0.000000000000
 C   -7.191046436879   -1.651649568131    0.000000000000
 H   -7.777246436879   -2.582769568131    0.000000000000
 C   -5.615196436879    0.648750431869    0.000000000000
 H   -5.065206436879    1.595550431869    0.000000000000
 C   -5.784526436879   -1.776799568131    0.000000000000
 H   -5.271546436879   -2.735389568131    0.000000000000
 C   -4.942016436879   -0.610159568131    0.000000000000
 O   -3.622596436879   -0.759659568131    0.000000000000
RB   -2.068346436879   -0.421889568131    2.166340000000
RB   -2.068346436879   -0.421889568131   -2.166340000000
 O    7.410404076829    1.638034871962    0.000000000000
 C    8.729821117530    1.488532857573    0.000000000000
 C    9.289942278863    0.162954505220    0.000000000000
 H    8.575483557055   -0.656555142822    0.000000000000
 C   10.688809524648   -0.029763825688    0.000000000000
 H   11.051806948787   -1.068440362666    0.000000000000
 C   11.595047033111    1.039829157814    0.000000000000
 H   12.669811520268    0.858041649863    0.000000000000
 C   11.064231917153    2.334507436604    0.000000000000
 H   11.783521496211    3.166416424390    0.000000000000
 C    9.667618192388    2.564902844318    0.000000000000
 H    9.343412284206    3.610765134823    0.000000000000
