26

 C   -7.886076145271   -0.417512396379    0.000000000000
 H   -8.974276145271   -0.354212396379    0.000000000000
 C   -7.079046145271    0.725577603621    0.000000000000
 H   -7.593956145271    1.697337603621    0.000000000000
 C   -7.242136145271   -1.662752396379    0.000000000000
 H   -7.828336145271   -2.593872396379    0.000000000000
 C   -5.666286145271    0.637647603621    0.000000000000
 H   -5.116296145271    1.584447603621    0.000000000000
 C   -5.835616145271   -1.787902396379    0.000000000000
 H   -5.322636145271   -2.746492396379    0.000000000000
 C   -4.993106145271   -0.621262396379    0.000000000000
 O   -3.673686145271   -0.770762396379    0.000000000000
RB   -2.119436145271   -0.432992396379    2.166340000000
RB   -2.119436145271   -0.432992396379   -2.166340000000
 O    7.554752523358    1.669404712583    0.000000000000
 C    8.874169564059    1.519902698193    0.000000000000
 C    9.434290725391    0.194324345840    0.000000000000
 H    8.719832003584   -0.625185302201    0.000000000000
 C   10.833157971177    0.001606014933    0.000000000000
 H   11.196155395316   -1.037070522045    0.000000000000
 C   11.739395479640    1.071198998434    0.000000000000
 H   12.814159966797    0.889411490484    0.000000000000
 C   11.208580363682    2.365877277224    0.000000000000
 H   11.927869942739    3.197786265011    0.000000000000
 C    9.811966638917    2.596272684938    0.000000000000
 H    9.487760730735    3.642134975443    0.000000000000
