10

 C    0.520288825357    1.284903164061   -0.000008696584
 H    0.913775825357    2.298032164061    0.000211303416
 C    1.132321825357    0.034795164061    0.000027303416
 H    2.198028825357   -0.183931835939   -0.000066696584
 N   -0.834799174643    1.015935164061   -0.000020696584
 H   -1.579733174643    1.702585164061    0.000233303416
 C   -0.992605174643   -0.348104835939    0.000034303416
 H   -1.970229174643   -0.824120835939   -0.000091696584
 N    0.186310825357   -0.974699835939    0.000023303416
LI    0.228385140398   -2.173961995092   -0.000136812920
