10

 C    0.518322269970    1.340956731575   -0.000001212739
 H    0.911809269970    2.354085731575    0.000218787261
 C    1.130355269970    0.090848731575    0.000034787261
 H    2.196062269970   -0.127878268425   -0.000059212739
 N   -0.836765730030    1.071988731575   -0.000013212739
 H   -1.581699730030    1.758638731575    0.000240787261
 C   -0.994571730030   -0.292051268425    0.000041787261
 H   -1.972195730030   -0.768067268425   -0.000084212739
 N    0.184344269970   -0.918646268425    0.000030787261
LI    0.247455742533   -2.717539507155   -0.000209387243
