10

 C    0.517994510739    1.350298992827    0.000000034568
 H    0.911481510739    2.363427992827    0.000220034568
 C    1.130027510739    0.100190992827    0.000036034568
 H    2.195734510739   -0.118536007173   -0.000057965432
 N   -0.837093489261    1.081330992827   -0.000011965432
 H   -1.582027489261    1.767980992827    0.000242034568
 C   -0.994899489261   -0.282709007173    0.000043034568
 H   -1.972523489261   -0.758725007173   -0.000082965432
 N    0.184016510739   -0.909304007173    0.000032034568
LI    0.250634176222   -2.808135759165   -0.000221482964
