10

 C    0.491446013023    2.107022154270    0.000101066473
 H    0.884933013023    3.120151154270    0.000321066473
 C    1.103479013023    0.856914154270    0.000137066473
 H    2.169186013023    0.638187154270    0.000043066473
 N   -0.863641986977    1.838054154270    0.000089066473
 H   -1.608575986977    2.524704154270    0.000343066473
 C   -1.021447986977    0.474014154270    0.000144066473
 H   -1.999071986977   -0.002001845730    0.000018066473
 N    0.157468013023   -0.152580845730    0.000133066473
LI    0.508087305036  -10.146432172006   -0.001201236328
