10

 C    0.516683473815    1.387668037837    0.000005023798
 H    0.910170473815    2.400797037837    0.000225023798
 C    1.128716473815    0.137560037837    0.000041023798
 H    2.194423473815   -0.081166962163   -0.000052976202
 N   -0.838404526185    1.118700037837   -0.000006976202
 H   -1.583338526185    1.805350037837    0.000247023798
 C   -0.996210526185   -0.245339962163    0.000048023798
 H   -1.973834526185   -0.721355962163   -0.000077976202
 N    0.182705473815   -0.871934962163    0.000037023798
LI    0.263347910978   -3.170520767206   -0.000269865846
