10

 C    0.515700196122    1.415694821594    0.000008765720
 H    0.909187196122    2.428823821594    0.000228765720
 C    1.127733196122    0.165586821594    0.000044765720
 H    2.193440196122   -0.053140178406   -0.000049234280
 N   -0.839387803878    1.146726821594   -0.000003234280
 H   -1.584321803878    1.833376821594    0.000250765720
 C   -0.997193803878   -0.217313178406    0.000051765720
 H   -1.974817803878   -0.693329178406   -0.000074234280
 N    0.181722196122   -0.843908178406    0.000040765720
LI    0.272883212045   -3.442309523238   -0.000306153008
