10

 C    0.515372436891    1.425037082846    0.000010013028
 H    0.908859436891    2.438166082846    0.000230013028
 C    1.127405436891    0.174929082846    0.000046013028
 H    2.193112436891   -0.043797917154   -0.000047986972
 N   -0.839715563109    1.156069082846   -0.000001986972
 H   -1.584649563109    1.842719082846    0.000252013028
 C   -0.997521563109   -0.207970917154    0.000053013028
 H   -1.975145563109   -0.683986917154   -0.000072986972
 N    0.181394436891   -0.834565917154    0.000042013028
LI    0.276061645734   -3.532905775248   -0.000318248728
