10

 C    0.513733640736    1.471748389108    0.000016249565
 H    0.907220640736    2.484877389108    0.000236249565
 C    1.125766640736    0.221640389108    0.000052249565
 H    2.191473640736    0.002913389108   -0.000041750435
 N   -0.841354359264    1.202780389108    0.000004249565
 H   -1.586288359264    1.889430389108    0.000258249565
 C   -0.999160359264   -0.161259610892    0.000059249565
 H   -1.976784359264   -0.637275610892   -0.000066750435
 N    0.179755640736   -0.787854610892    0.000048249565
LI    0.291953814180   -3.985887035300   -0.000378727331
