10

 C    0.512750363042    1.499775172865    0.000019991487
 H    0.906237363042    2.512904172865    0.000239991487
 C    1.124783363042    0.249667172865    0.000055991487
 H    2.190490363042    0.030940172865   -0.000038008513
 N   -0.842337636958    1.230807172865    0.000007991487
 H   -1.587271636958    1.917457172865    0.000261991487
 C   -1.000143636958   -0.133232827135    0.000062991487
 H   -1.977767636958   -0.609248827135   -0.000063008513
 N    0.178772363042   -0.759827827135    0.000051991487
LI    0.301489115247   -4.257675791331   -0.000415014493
