10

 C    0.512422603811    1.509117434118    0.000021238795
 H    0.905909603811    2.522246434118    0.000241238795
 C    1.124455603811    0.259009434118    0.000057238795
 H    2.190162603811    0.040282434118   -0.000036761205
 N   -0.842665396189    1.240149434118    0.000009238795
 H   -1.587599396189    1.926799434118    0.000263238795
 C   -1.000471396189   -0.123890565882    0.000064238795
 H   -1.978095396189   -0.599906565882   -0.000061761205
 N    0.178444603811   -0.750485565882    0.000053238795
LI    0.304667548936   -4.348272043341   -0.000427110213
