10

 C    0.512094844580    1.518459695370    0.000022486102
 H    0.905581844580    2.531588695370    0.000242486102
 C    1.124127844580    0.268351695370    0.000058486102
 H    2.189834844580    0.049624695370   -0.000035513898
 N   -0.842993155420    1.249491695370    0.000010486102
 H   -1.587927155420    1.936141695370    0.000264486102
 C   -1.000799155420   -0.114548304630    0.000065486102
 H   -1.978423155420   -0.590564304630   -0.000060513898
 N    0.178116844580   -0.741143304630    0.000054486102
LI    0.307845982625   -4.438868295352   -0.000439205934
