10

 C    0.511767085349    1.527801956623    0.000023733410
 H    0.905254085349    2.540930956623    0.000243733410
 C    1.123800085349    0.277693956623    0.000059733410
 H    2.189507085349    0.058966956623   -0.000034266590
 N   -0.843320914651    1.258833956623    0.000011733410
 H   -1.588254914651    1.945483956623    0.000265733410
 C   -1.001126914651   -0.105206043377    0.000066733410
 H   -1.978750914651   -0.581222043377   -0.000059266590
 N    0.177789085349   -0.731801043377    0.000055733410
LI    0.311024416314   -4.529464547362   -0.000451301654
