10

 C    0.511439326118    1.537144217875    0.000024980717
 H    0.904926326118    2.550273217875    0.000244980717
 C    1.123472326118    0.287036217875    0.000060980717
 H    2.189179326118    0.068309217875   -0.000033019283
 N   -0.843648673882    1.268176217875    0.000012980717
 H   -1.588582673882    1.954826217875    0.000266980717
 C   -1.001454673882   -0.095863782125    0.000067980717
 H   -1.979078673882   -0.571879782125   -0.000058019283
 N    0.177461326118   -0.722458782125    0.000056980717
LI    0.314202850003   -4.620060799373   -0.000463397375
