10

 C    0.511111566887    1.546486479127    0.000026228025
 H    0.904598566887    2.559615479127    0.000246228025
 C    1.123144566887    0.296378479127    0.000062228025
 H    2.188851566887    0.077651479127   -0.000031771975
 N   -0.843976433113    1.277518479127    0.000014228025
 H   -1.588910433113    1.964168479127    0.000268228025
 C   -1.001782433113   -0.086521520873    0.000069228025
 H   -1.979406433113   -0.562537520873   -0.000056771975
 N    0.177133566887   -0.713116520873    0.000058228025
LI    0.317381283692   -4.710657051383   -0.000475493095
