10

 C    0.510456048425    1.565171001632    0.000028722640
 H    0.903943048425    2.578300001632    0.000248722640
 C    1.122489048425    0.315063001632    0.000064722640
 H    2.188196048425    0.096336001632   -0.000029277360
 N   -0.844631951575    1.296203001632    0.000016722640
 H   -1.589565951575    1.982853001632    0.000270722640
 C   -1.002437951575   -0.067836998368    0.000071722640
 H   -1.980061951575   -0.543852998368   -0.000054277360
 N    0.176478048425   -0.694431998368    0.000060722640
LI    0.323738151070   -4.891849555404   -0.000499684536
