10

 C    0.509800529963    1.583855524137    0.000031217255
 H    0.903287529963    2.596984524137    0.000251217255
 C    1.121833529963    0.333747524137    0.000067217255
 H    2.187540529963    0.115020524137   -0.000026782745
 N   -0.845287470037    1.314887524137    0.000019217255
 H   -1.590221470037    2.001537524137    0.000273217255
 C   -1.003093470037   -0.049152475863    0.000074217255
 H   -1.980717470037   -0.525168475863   -0.000051782745
 N    0.175822529963   -0.675747475863    0.000063217255
LI    0.330095018448   -5.073042059425   -0.000523875978
