10

 C    0.509145011501    1.602540046642    0.000033711870
 H    0.902632011501    2.615669046642    0.000253711870
 C    1.121178011501    0.352432046642    0.000069711870
 H    2.186885011501    0.133705046642   -0.000024288130
 N   -0.845942988499    1.333572046642    0.000021711870
 H   -1.590876988499    2.020222046642    0.000275711870
 C   -1.003748988499   -0.030467953358    0.000076711870
 H   -1.981372988499   -0.506483953358   -0.000049288130
 N    0.175167011501   -0.657062953358    0.000065711870
LI    0.336451885826   -5.254234563445   -0.000548067419
