10

 C    0.508489493038    1.621224569146    0.000036206484
 H    0.901976493038    2.634353569146    0.000256206484
 C    1.120522493038    0.371116569146    0.000072206484
 H    2.186229493038    0.152389569146   -0.000021793516
 N   -0.846598506962    1.352256569146    0.000024206484
 H   -1.591532506962    2.038906569146    0.000278206484
 C   -1.004404506962   -0.011783430854    0.000079206484
 H   -1.982028506962   -0.487799430854   -0.000046793516
 N    0.174511493038   -0.638378430854    0.000068206484
LI    0.342808753205   -5.435427067466   -0.000572258860
