10

 C    0.508161733807    1.630566830399    0.000037453792
 H    0.901648733807    2.643695830399    0.000257453792
 C    1.120194733807    0.380458830399    0.000073453792
 H    2.185901733807    0.161731830399   -0.000020546208
 N   -0.846926266193    1.361598830399    0.000025453792
 H   -1.591860266193    2.048248830399    0.000279453792
 C   -1.004732266193   -0.002441169601    0.000080453792
 H   -1.982356266193   -0.478457169601   -0.000045546208
 N    0.174183733807   -0.629036169601    0.000069453792
LI    0.345987186894   -5.526023319476   -0.000584354580
