10

 C    0.507833974576    1.639909091651    0.000038701099
 H    0.901320974576    2.653038091651    0.000258701099
 C    1.119866974576    0.389801091651    0.000074701099
 H    2.185573974576    0.171074091651   -0.000019298901
 N   -0.847254025424    1.370941091651    0.000026701099
 H   -1.592188025424    2.057591091651    0.000280701099
 C   -1.005060025424    0.006901091651    0.000081701099
 H   -1.982684025424   -0.469114908349   -0.000044298901
 N    0.173855974576   -0.619693908349    0.000070701099
LI    0.349165620583   -5.616619571487   -0.000596450301
