10

 C    0.507178456114    1.658593614156    0.000041195714
 H    0.900665456114    2.671722614156    0.000261195714
 C    1.119211456114    0.408485614156    0.000077195714
 H    2.184918456114    0.189758614156   -0.000016804286
 N   -0.847909543886    1.389625614156    0.000029195714
 H   -1.592843543886    2.076275614156    0.000283195714
 C   -1.005715543886    0.025585614156    0.000084195714
 H   -1.983339543886   -0.450430385844   -0.000041804286
 N    0.173200456114   -0.601009385844    0.000073195714
LI    0.355522487961   -5.797812075508   -0.000620641742
