10

 C    0.506522937652    1.677278136661    0.000043690329
 H    0.900009937652    2.690407136661    0.000263690329
 C    1.118555937652    0.427170136661    0.000079690329
 H    2.184262937652    0.208443136661   -0.000014309671
 N   -0.848565062348    1.408310136661    0.000031690329
 H   -1.593499062348    2.094960136661    0.000285690329
 C   -1.006371062348    0.044270136661    0.000086690329
 H   -1.983995062348   -0.431745863339   -0.000039309671
 N    0.172544937652   -0.582324863339    0.000075690329
LI    0.361879355339   -5.979004579528   -0.000644833183
