10

 C    0.506195178421    1.686620397913    0.000044937637
 H    0.899682178421    2.699749397913    0.000264937637
 C    1.118228178421    0.436512397913    0.000080937637
 H    2.183935178421    0.217785397913   -0.000013062363
 N   -0.848892821579    1.417652397913    0.000032937637
 H   -1.593826821579    2.104302397913    0.000286937637
 C   -1.006698821579    0.053612397913    0.000087937637
 H   -1.984322821579   -0.422403602087   -0.000038062363
 N    0.172217178421   -0.572982602087    0.000076937637
LI    0.365057789028   -6.069600831539   -0.000656928903
