10

 C    0.504556382266    1.733331704175    0.000051174174
 H    0.898043382266    2.746460704175    0.000271174174
 C    1.116589382266    0.483223704175    0.000087174174
 H    2.182296382266    0.264496704175   -0.000006825826
 N   -0.850531617734    1.464363704175    0.000039174174
 H   -1.595465617734    2.151013704175    0.000293174174
 C   -1.008337617734    0.100323704175    0.000094174174
 H   -1.985961617734   -0.375692295825   -0.000031825826
 N    0.170578382266   -0.526271295825    0.000083174174
LI    0.380949957473   -6.522582091591   -0.000717407506
