10

 C    0.503245345341    1.770700749184    0.000056163404
 H    0.896732345341    2.783829749184    0.000276163404
 C    1.115278345341    0.520592749184    0.000092163404
 H    2.180985345341    0.301865749184   -0.000001836596
 N   -0.851842654659    1.501732749184    0.000044163404
 H   -1.596776654659    2.188382749184    0.000298163404
 C   -1.009648654659    0.137692749184    0.000099163404
 H   -1.987272654659   -0.338323250816   -0.000026836596
 N    0.169267345341   -0.488902250816    0.000088163404
LI    0.393663692230   -6.884967099632   -0.000765790388
