10

 C    0.501278789955    1.826754316699    0.000063647249
 H    0.894765789955    2.839883316699    0.000283647249
 C    1.113311789955    0.576646316699    0.000099647249
 H    2.179018789955    0.357919316699    0.000005647249
 N   -0.853809210045    1.557786316699    0.000051647249
 H   -1.598743210045    2.244436316699    0.000305647249
 C   -1.011615210045    0.193746316699    0.000106647249
 H   -1.989239210045   -0.282269683301   -0.000019352751
 N    0.167300789955   -0.432848683301    0.000095647249
LI    0.412734294364   -7.428544611695   -0.000838364712
