10

 C    0.500295512262    1.854781100456    0.000067389171
 H    0.893782512262    2.867910100456    0.000287389171
 C    1.112328512262    0.604673100456    0.000103389171
 H    2.178035512262    0.385946100456    0.000009389171
 N   -0.854792487738    1.585813100456    0.000055389171
 H   -1.599726487738    2.272463100456    0.000309389171
 C   -1.012598487738    0.221773100456    0.000110389171
 H   -1.990222487738   -0.254242899544   -0.000015610829
 N    0.166317512262   -0.404821899544    0.000099389171
LI    0.422269595431   -7.700333367726   -0.000874651873
