10

 C    0.499312234569    1.882807884213    0.000071131093
 H    0.892799234569    2.895936884213    0.000291131093
 C    1.111345234569    0.632699884213    0.000107131093
 H    2.177052234569    0.413972884213    0.000013131093
 N   -0.855775765431    1.613839884213    0.000059131093
 H   -1.600709765431    2.300489884213    0.000313131093
 C   -1.013581765431    0.249799884213    0.000114131093
 H   -1.991205765431   -0.226216115787   -0.000011868907
 N    0.165334234569   -0.376795115787    0.000103131093
LI    0.431804896498   -7.972122123757   -0.000910939035
