10

 C    0.498984475337    1.892150145465    0.000072378401
 H    0.892471475337    2.905279145465    0.000292378401
 C    1.111017475337    0.642042145465    0.000108378401
 H    2.176724475337    0.423315145465    0.000014378401
 N   -0.856103524663    1.623182145465    0.000060378401
 H   -1.601037524663    2.309832145465    0.000314378401
 C   -1.013909524663    0.259142145465    0.000115378401
 H   -1.991533524663   -0.216873854535   -0.000010621599
 N    0.165006475337   -0.367452854535    0.000104378401
LI    0.434983330187   -8.062718375767   -0.000923034755
