10

 C    0.498656716106    1.901492406717    0.000073625708
 H    0.892143716106    2.914621406717    0.000293625708
 C    1.110689716106    0.651384406717    0.000109625708
 H    2.176396716106    0.432657406717    0.000015625708
 N   -0.856431283894    1.632524406717    0.000061625708
 H   -1.601365283894    2.319174406717    0.000315625708
 C   -1.014237283894    0.268484406717    0.000116625708
 H   -1.991861283894   -0.207531593283   -0.000009374292
 N    0.164678716106   -0.358110593283    0.000105625708
LI    0.438161763876   -8.153314627778   -0.000935130476
