10

 C    0.498328956875    1.910834667970    0.000074873016
 H    0.891815956875    2.923963667970    0.000294873016
 C    1.110361956875    0.660726667970    0.000110873016
 H    2.176068956875    0.441999667970    0.000016873016
 N   -0.856759043125    1.641866667970    0.000062873016
 H   -1.601693043125    2.328516667970    0.000316873016
 C   -1.014565043125    0.277826667970    0.000117873016
 H   -1.992189043125   -0.198189332030   -0.000008126984
 N    0.164350956875   -0.348768332030    0.000106873016
LI    0.441340197565   -8.243910879788   -0.000947226196
