10

 C    0.497017919951    1.948203712979    0.000079862246
 H    0.890504919951    2.961332712979    0.000299862246
 C    1.109050919951    0.698095712979    0.000115862246
 H    2.174757919951    0.479368712979    0.000021862246
 N   -0.858070080049    1.679235712979    0.000067862246
 H   -1.603004080049    2.365885712979    0.000321862246
 C   -1.015876080049    0.315195712979    0.000122862246
 H   -1.993500080049   -0.160820287021   -0.000003137754
 N    0.163039919951   -0.311399287021    0.000111862246
LI    0.454053932322   -8.606295887830   -0.000995609079
