10

 C    0.496362401489    1.966888235484    0.000082356861
 H    0.889849401489    2.980017235484    0.000302356861
 C    1.108395401489    0.716780235484    0.000118356861
 H    2.174102401489    0.498053235484    0.000024356861
 N   -0.858725598511    1.697920235484    0.000070356861
 H   -1.603659598511    2.384570235484    0.000324356861
 C   -1.016531598511    0.333880235484    0.000125356861
 H   -1.994155598511   -0.142135764516   -0.000000643139
 N    0.162384401489   -0.292714764516    0.000114356861
LI    0.460410799700   -8.787488391850   -0.001019800520
