10

 C    0.495379123796    1.994915019241    0.000086098783
 H    0.888866123796    3.008044019241    0.000306098783
 C    1.107412123796    0.744807019241    0.000122098783
 H    2.173119123796    0.526080019241    0.000028098783
 N   -0.859708876204    1.725947019241    0.000074098783
 H   -1.604642876204    2.412597019241    0.000328098783
 C   -1.017514876204    0.361907019241    0.000129098783
 H   -1.995138876204   -0.114108980759    0.000003098783
 N    0.161401123796   -0.264687980759    0.000118098783
LI    0.469946100767   -9.059277147881   -0.001056087681
