10

 C    0.494723605334    2.013599541746    0.000088593398
 H    0.888210605334    3.026728541746    0.000308593398
 C    1.106756605334    0.763491541746    0.000124593398
 H    2.172463605334    0.544764541746    0.000030593398
 N   -0.860364394666    1.744631541746    0.000076593398
 H   -1.605298394666    2.431281541746    0.000330593398
 C   -1.018170394666    0.380591541746    0.000131593398
 H   -1.995794394666   -0.095424458254    0.000005593398
 N    0.160745605334   -0.246003458254    0.000120593398
LI    0.476302968145   -9.240469651902   -0.001080279122
