10

 C    0.493084809178    2.060310848008    0.000094829935
 H    0.886571809178    3.073439848008    0.000314829935
 C    1.105117809178    0.810202848008    0.000130829935
 H    2.170824809178    0.591475848008    0.000036829935
 N   -0.862003190822    1.791342848008    0.000082829935
 H   -1.606937190822    2.477992848008    0.000336829935
 C   -1.019809190822    0.427302848008    0.000137829935
 H   -1.997433190822   -0.048713151992    0.000011829935
 N    0.159106809178   -0.199292151992    0.000126829935
LI    0.492195136590   -9.693450911954   -0.001140757725
