10

 C    0.492429290716    2.078995370513    0.000097324550
 H    0.885916290716    3.092124370513    0.000317324550
 C    1.104462290716    0.828887370513    0.000133324550
 H    2.170169290716    0.610160370513    0.000039324550
 N   -0.862658709284    1.810027370513    0.000085324550
 H   -1.607592709284    2.496677370513    0.000339324550
 C   -1.020464709284    0.445987370513    0.000140324550
 H   -1.998088709284   -0.030028629487    0.000014324550
 N    0.158451290716   -0.180607629487    0.000129324550
LI    0.498552003969   -9.874643415975   -0.001164949166
