7

 H   -1.439629282473    1.662674775303    0.000000000000
 H    0.099929717527    1.753653775303    0.902247000000
 H    0.099929717527    1.753653775303   -0.902247000000
 C   -0.383881282473    1.357133775303    0.000000000000
 S   -0.383881282473   -0.475592224697    0.000000000000
 H    0.956701717527   -0.631983224697    0.000000000000
LI    2.446597750084   -0.805792925721    0.000000000000
