7

 H   -1.452295263907    1.664152375349    0.000000000000
 H    0.087263736093    1.755131375349    0.902247000000
 H    0.087263736093    1.755131375349   -0.902247000000
 C   -0.396547263907    1.358611375349    0.000000000000
 S   -0.396547263907   -0.474114624651    0.000000000000
 H    0.944035736093   -0.630505624651    0.000000000000
LI    2.533258170820   -0.815902639077    0.000000000000
