7

 H   -2.516237704374    1.788270779212    0.000000000000
 H   -0.976678704374    1.879249779212    0.902247000000
 H   -0.976678704374    1.879249779212   -0.902247000000
 C   -1.460489704374    1.482729779212    0.000000000000
 S   -1.460489704374   -0.349996220788    0.000000000000
 H   -0.119906704374   -0.506387220788    0.000000000000
LI    9.812733512674   -1.665118560947    0.000000000000
