7

 H   -1.528291152512    1.673017975625    0.000000000000
 H    0.011267847488    1.763996975625    0.902247000000
 H    0.011267847488    1.763996975625   -0.902247000000
 C   -0.472543152512    1.367476975625    0.000000000000
 S   -0.472543152512   -0.465249024375    0.000000000000
 H    0.868039847488   -0.621640024375    0.000000000000
LI    3.053220695239   -0.876560919210    0.000000000000
