7

 H   -1.540957133946    1.674495575671    0.000000000000
 H   -0.001398133946    1.765474575671    0.902247000000
 H   -0.001398133946    1.765474575671   -0.902247000000
 C   -0.485209133946    1.368954575671    0.000000000000
 S   -0.485209133946   -0.463771424329    0.000000000000
 H    0.855373866054   -0.620162424329    0.000000000000
LI    3.139881115975   -0.886670632566    0.000000000000
