7

 H   -1.578955078249    1.678928375809    0.000000000000
 H   -0.039396078249    1.769907375809    0.902247000000
 H   -0.039396078249    1.769907375809   -0.902247000000
 C   -0.523207078249    1.373387375809    0.000000000000
 S   -0.523207078249   -0.459338624191    0.000000000000
 H    0.817375921751   -0.615729624191    0.000000000000
LI    3.399862378184   -0.916999772633    0.000000000000
