7

 H   -1.654950966853    1.687793976085    0.000000000000
 H   -0.115391966853    1.778772976085    0.902247000000
 H   -0.115391966853    1.778772976085   -0.902247000000
 C   -0.599202966853    1.382252976085    0.000000000000
 S   -0.599202966853   -0.450473023915    0.000000000000
 H    0.741380033147   -0.606864023915    0.000000000000
LI    3.919824902602   -0.977658052766    0.000000000000
