7

 H   -1.667616948288    1.689271576131    0.000000000000
 H   -0.128057948288    1.780250576131    0.902247000000
 H   -0.128057948288    1.780250576131   -0.902247000000
 C   -0.611868948288    1.383730576131    0.000000000000
 S   -0.611868948288   -0.448995423869    0.000000000000
 H    0.728714051712   -0.605386423869    0.000000000000
LI    4.006485323338   -0.987767766122    0.000000000000
