7

 H   -1.680282929722    1.690749176177    0.000000000000
 H   -0.140723929722    1.781728176177    0.902247000000
 H   -0.140723929722    1.781728176177   -0.902247000000
 C   -0.624534929722    1.385208176177    0.000000000000
 S   -0.624534929722   -0.447517823823    0.000000000000
 H    0.716048070278   -0.603908823823    0.000000000000
LI    4.093145744075   -0.997877479478    0.000000000000
