7

 H   -1.756278818327    1.699614776453    0.000000000000
 H   -0.216719818327    1.790593776453    0.902247000000
 H   -0.216719818327    1.790593776453   -0.902247000000
 C   -0.700530818327    1.394073776453    0.000000000000
 S   -0.700530818327   -0.438652223547    0.000000000000
 H    0.640052181673   -0.595043223547    0.000000000000
LI    4.613108268493   -1.058535759611    0.000000000000
