7

 H   -1.844940688365    1.709957976774    0.000000000000
 H   -0.305381688365    1.800936976774    0.902247000000
 H   -0.305381688365    1.800936976774   -0.902247000000
 C   -0.789192688365    1.404416976774    0.000000000000
 S   -0.789192688365   -0.428309023226    0.000000000000
 H    0.551390311635   -0.584700023226    0.000000000000
LI    5.219731213647   -1.129303753100    0.000000000000
