7

 H   -1.882938632668    1.714390776912    0.000000000000
 H   -0.343379632668    1.805369776912    0.902247000000
 H   -0.343379632668    1.805369776912   -0.902247000000
 C   -0.827190632668    1.408849776912    0.000000000000
 S   -0.827190632668   -0.423876223088    0.000000000000
 H    0.513392367332   -0.580267223088    0.000000000000
LI    5.479712475857   -1.159632893167    0.000000000000
