7

 H   -1.895604614102    1.715868376958    0.000000000000
 H   -0.356045614102    1.806847376958    0.902247000000
 H   -0.356045614102    1.806847376958   -0.902247000000
 C   -0.839856614102    1.410327376958    0.000000000000
 S   -0.839856614102   -0.422398623042    0.000000000000
 H    0.500726385898   -0.578789623042    0.000000000000
LI    5.566372896593   -1.169742606523    0.000000000000
