7

 H   -1.920936576970    1.718823577050    0.000000000000
 H   -0.381377576970    1.809802577050    0.902247000000
 H   -0.381377576970    1.809802577050   -0.902247000000
 C   -0.865188576970    1.413282577050    0.000000000000
 S   -0.865188576970   -0.419443422950    0.000000000000
 H    0.475394423030   -0.575834422950    0.000000000000
LI    5.739693738066   -1.189962033234    0.000000000000
