7

 H   -1.933602558404    1.720301177096    0.000000000000
 H   -0.394043558404    1.811280177096    0.902247000000
 H   -0.394043558404    1.811280177096   -0.902247000000
 C   -0.877854558404    1.414760177096    0.000000000000
 S   -0.877854558404   -0.417965822904    0.000000000000
 H    0.462728441596   -0.574356822904    0.000000000000
LI    5.826354158802   -1.200071746589    0.000000000000
