7

 H   -1.971600502707    1.724733977234    0.000000000000
 H   -0.432041502707    1.815712977234    0.902247000000
 H   -0.432041502707    1.815712977234   -0.902247000000
 C   -0.915852502707    1.419192977234    0.000000000000
 S   -0.915852502707   -0.413533022766    0.000000000000
 H    0.424730497293   -0.569924022766    0.000000000000
LI    6.086335421011   -1.230400886656    0.000000000000
