7

 H   -2.072928354180    1.736554777602    0.000000000000
 H   -0.533369354180    1.827533777602    0.902247000000
 H   -0.533369354180    1.827533777602   -0.902247000000
 C   -1.017180354180    1.431013777602    0.000000000000
 S   -1.017180354180   -0.401712222398    0.000000000000
 H    0.323402645820   -0.558103222398    0.000000000000
LI    6.779618786902   -1.311278593501    0.000000000000
