7

 H   -2.085594335614    1.738032377648    0.000000000000
 H   -0.546035335614    1.829011377648    0.902247000000
 H   -0.546035335614    1.829011377648   -0.902247000000
 C   -1.029846335614    1.432491377648    0.000000000000
 S   -1.029846335614   -0.400234622352    0.000000000000
 H    0.310736664386   -0.556625622352    0.000000000000
LI    6.866279207638   -1.321388306857    0.000000000000
