7

 H   -2.161590224219    1.746897977924    0.000000000000
 H   -0.622031224219    1.837876977924    0.902247000000
 H   -0.622031224219    1.837876977924   -0.902247000000
 C   -1.105842224219    1.441356977924    0.000000000000
 S   -1.105842224219   -0.391369022076    0.000000000000
 H    0.234740775781   -0.547760022076    0.000000000000
LI    7.386241732056   -1.382046586990    0.000000000000
