7

 H   -2.199588168521    1.751330778062    0.000000000000
 H   -0.660029168521    1.842309778062    0.902247000000
 H   -0.660029168521    1.842309778062   -0.902247000000
 C   -1.143840168521    1.445789778062    0.000000000000
 S   -1.143840168521   -0.386936221938    0.000000000000
 H    0.196742831479   -0.543327221938    0.000000000000
LI    7.646222994265   -1.412375727057    0.000000000000
