7

 H   -2.212254149955    1.752808378108    0.000000000000
 H   -0.672695149955    1.843787378108    0.902247000000
 H   -0.672695149955    1.843787378108   -0.902247000000
 C   -1.156506149955    1.447267378108    0.000000000000
 S   -1.156506149955   -0.385458621892    0.000000000000
 H    0.184076850045   -0.541849621892    0.000000000000
LI    7.732883415002   -1.422485440412    0.000000000000
