7

 H   -2.250252094258    1.757241178246    0.000000000000
 H   -0.710693094258    1.848220178246    0.902247000000
 H   -0.710693094258    1.848220178246   -0.902247000000
 C   -1.194504094258    1.451700178246    0.000000000000
 S   -1.194504094258   -0.381025821754    0.000000000000
 H    0.146078905742   -0.537416821754    0.000000000000
LI    7.992864677211   -1.452814580479    0.000000000000
