7

 H   -2.313582001428    1.764629178476    0.000000000000
 H   -0.774023001428    1.855608178476    0.902247000000
 H   -0.774023001428    1.855608178476   -0.902247000000
 C   -1.257834001428    1.459088178476    0.000000000000
 S   -1.257834001428   -0.373637821524    0.000000000000
 H    0.082748998572   -0.530028821524    0.000000000000
LI    8.426166780893   -1.503363147257    0.000000000000
