7

 H   -2.338913964296    1.767584378568    0.000000000000
 H   -0.799354964296    1.858563378568    0.902247000000
 H   -0.799354964296    1.858563378568   -0.902247000000
 C   -1.283165964296    1.462043378568    0.000000000000
 S   -1.283165964296   -0.370682621432    0.000000000000
 H    0.057417035704   -0.527073621432    0.000000000000
LI    8.599487622365   -1.523582573968    0.000000000000
