7

 H   -2.351579945731    1.769061978614    0.000000000000
 H   -0.812020945731    1.860040978614    0.902247000000
 H   -0.812020945731    1.860040978614   -0.902247000000
 C   -1.295831945731    1.463520978614    0.000000000000
 S   -1.295831945731   -0.369205021386    0.000000000000
 H    0.044751054269   -0.525596021386    0.000000000000
LI    8.686148043102   -1.533692287324    0.000000000000
