7

 H   -2.364245927165    1.770539578660    0.000000000000
 H   -0.824686927165    1.861518578660    0.902247000000
 H   -0.824686927165    1.861518578660   -0.902247000000
 C   -1.308497927165    1.464998578660    0.000000000000
 S   -1.308497927165   -0.367727421340    0.000000000000
 H    0.032085072835   -0.524118421340    0.000000000000
LI    8.772808463838   -1.543802000680    0.000000000000
