9

 N   -0.131444237596    0.204675781124    0.434159506784
 C   -0.530706237596    0.826378781124    1.752919506784
 H   -0.866021237596    0.321397781124   -0.274648493216
 H    0.044299762404   -0.802980218876    0.531021506784
 H    0.725594762404    0.631267781124    0.061140506784
 H    0.288277762404    0.670081781124    2.463311506784
 H   -1.445679237596    0.332499781124    2.097492506784
 H   -0.703455237596    1.895013781124    1.585588506784
CL    0.291156110102   -0.453368069692   -0.961686916190
