9

 N   -0.159007086285    0.247594730882    0.525199431288
 C   -0.558269086285    0.869297730882    1.843959431288
 H   -0.893584086285    0.364316730882   -0.183608568712
 H    0.016736913715   -0.760061269118    0.622061431288
 H    0.698031913715    0.674186730882    0.152180431288
 H    0.260714913715    0.713000730882    2.554351431288
 H   -1.473242086285    0.375418730882    2.188532431288
 H   -0.731018086285    1.937932730882    1.676628431288
CL    0.316418304875   -0.492704601286   -1.045127794558
