9

 N   -0.172788510629    0.269054205762    0.570719393540
 C   -0.572050510629    0.890757205762    1.889479393540
 H   -0.907365510629    0.385776205762   -0.138088606460
 H    0.002955489371   -0.738601794238    0.667581393540
 H    0.684250489371    0.695646205762    0.197700393540
 H    0.246933489371    0.734460205762    2.599871393540
 H   -1.487023510629    0.396878205762    2.234052393540
 H   -0.744799510629    1.959392205762    1.722148393540
CL    0.329049402261   -0.512372867083   -1.086848233742
