9

 N   -0.200351359318    0.311973155520    0.661759318043
 C   -0.599613359318    0.933676155520    1.980519318043
 H   -0.934928359318    0.428695155520   -0.047048681957
 H   -0.024607359318   -0.695682844480    0.758621318043
 H    0.656687640682    0.738565155520    0.288740318043
 H    0.219370640682    0.777379155520    2.690911318043
 H   -1.514586359318    0.439797155520    2.325092318043
 H   -0.772362359318    2.002311155520    1.813188318043
CL    0.354311597034   -0.551709398676   -1.170289112110
