9

 N   -0.227914208007    0.354892105279    0.752799242547
 C   -0.627176208007    0.976595105279    2.071559242547
 H   -0.962491208007    0.471614105279    0.043991242547
 H   -0.052170208007   -0.652763894721    0.849661242547
 H    0.629124791993    0.781484105279    0.379780242547
 H    0.191807791993    0.820298105279    2.781951242547
 H   -1.542149208007    0.482716105279    2.416132242547
 H   -0.799925208007    2.045230105279    1.904228242547
CL    0.379573791808   -0.591045930269   -1.253729990478
