9

 N   -0.269258481041    0.419270529917    0.889359129303
 C   -0.668520481041    1.040973529917    2.208119129303
 H   -1.003835481041    0.535992529917    0.180551129303
 H   -0.093514481041   -0.588385470083    0.986221129303
 H    0.587780518959    0.845862529917    0.516340129303
 H    0.150463518959    0.884676529917    2.918511129303
 H   -1.583493481041    0.547094529917    2.552692129303
 H   -0.841269481041    2.109608529917    2.040788129303
CL    0.417467083967   -0.650050727659   -1.378891308030
