9

 N   -0.338165602764    0.526567904313    1.116958940562
 C   -0.737427602764    1.148270904313    2.435718940562
 H   -1.072742602764    0.643289904313    0.408150940562
 H   -0.162421602764   -0.481088095687    1.213820940562
 H    0.518873397236    0.953159904313    0.743939940562
 H    0.081556397236    0.991973904313    3.146110940562
 H   -1.652400602764    0.654391904313    2.780291940562
 H   -0.910176602764    2.216905904313    2.268387940562
CL    0.480622570900   -0.748392056643   -1.587493503950
