9

 N   -0.379509875797    0.590946328951    1.253518827317
 C   -0.778771875797    1.212649328951    2.572278827317
 H   -1.114086875797    0.707668328951    0.544710827317
 H   -0.203765875797   -0.416709671049    1.350380827317
 H    0.477529124203    1.017538328951    0.880499827317
 H    0.040212124203    1.056352328951    3.282670827317
 H   -1.693744875797    0.718770328951    2.916851827317
 H   -0.951520875797    2.281284328951    2.404947827317
CL    0.518515863060   -0.807396854033   -1.712654821502
