9

 N   -0.407072724486    0.633865278710    1.344558751821
 C   -0.806334724486    1.255568278710    2.663318751821
 H   -1.141649724486    0.750587278710    0.635750751821
 H   -0.231328724486   -0.373790721290    1.441420751821
 H    0.449966275514    1.060457278710    0.971539751821
 H    0.012649275514    1.099271278710    3.373710751821
 H   -1.721307724486    0.761689278710    3.007891751821
 H   -0.979083724486    2.324203278710    2.495987751821
CL    0.543778057833   -0.846733385626   -1.796095699870
