9

 N   -0.434635573175    0.676784228469    1.435598676325
 C   -0.833897573175    1.298487228469    2.754358676325
 H   -1.169212573175    0.793506228469    0.726790676325
 H   -0.258891573175   -0.330871771531    1.532460676325
 H    0.422403426825    1.103376228469    1.062579676325
 H   -0.014913573175    1.142190228469    3.464750676325
 H   -1.748870573175    0.804608228469    3.098931676325
 H   -1.006646573175    2.367122228469    2.587027676325
CL    0.569040252606   -0.886069917219   -1.879536578238
