9

 N   -0.531105543587    0.827000552624    1.754238412088
 C   -0.930367543587    1.448703552624    3.072998412088
 H   -1.265682543587    0.943722552624    1.045430412088
 H   -0.355361543587   -0.180655447376    1.851100412088
 H    0.325933456413    1.253592552624    1.381219412088
 H   -0.111383543587    1.292406552624    3.783390412088
 H   -1.845340543587    0.954824552624    3.417571412088
 H   -1.103116543587    2.517338552624    2.905667412088
CL    0.657457934312   -1.023747777796   -2.171579652527
