9

 N   -0.572449816621    0.891378977262    1.890798298843
 C   -0.971711816621    1.513081977262    3.209558298843
 H   -1.307026816621    1.008100977262    1.181990298843
 H   -0.396705816621   -0.116277022738    1.987660298843
 H    0.284589183379    1.317970977262    1.517779298843
 H   -0.152727816621    1.356784977262    3.919950298843
 H   -1.886684816621    1.019202977262    3.554131298843
 H   -1.144460816621    2.581716977262    3.042227298843
CL    0.695351226472   -1.082752575186   -2.296740970079
