9

 N   -0.586231240965    0.912838452141    1.936318261095
 C   -0.985493240965    1.534541452141    3.255078261095
 H   -1.320808240965    1.029560452141    1.227510261095
 H   -0.410487240965   -0.094817547859    2.033180261095
 H    0.270807759035    1.339430452141    1.563299261095
 H   -0.166509240965    1.378244452141    3.965470261095
 H   -1.900466240965    1.040662452141    3.599651261095
 H   -1.158242240965    2.603176452141    3.087747261095
CL    0.707982323858   -1.102420840983   -2.338461409263
