9

 N   -0.668919787032    1.041595301417    2.209438034606
 C   -1.068181787032    1.663298301417    3.528198034606
 H   -1.403496787032    1.158317301417    1.500630034606
 H   -0.493175787032    0.033939301417    2.306300034606
 H    0.188119212968    1.468187301417    1.836419034606
 H   -0.249197787032    1.507001301417    4.238590034606
 H   -1.983154787032    1.169419301417    3.872771034606
 H   -1.240930787032    2.731933301417    3.360867034606
CL    0.783768908177   -1.220430435763   -2.588784044367
