9

 N   -0.682701211377    1.063054776296    2.254957996858
 C   -1.081963211377    1.684757776296    3.573717996858
 H   -1.417278211377    1.179776776296    1.546149996858
 H   -0.506957211377    0.055398776296    2.351819996858
 H    0.174337788623    1.489646776296    1.881938996858
 H   -0.262979211377    1.528460776296    4.284109996858
 H   -1.996936211377    1.190878776296    3.918290996858
 H   -1.254712211377    2.753392776296    3.406386996858
CL    0.796400005564   -1.240098701560   -2.630504483551
