9

 N   -0.710264060066    1.105973726055    2.345997921361
 C   -1.109526060066    1.727676726055    3.664757921361
 H   -1.444841060066    1.222695726055    1.637189921361
 H   -0.534520060066    0.098317726055    2.442859921361
 H    0.146774939934    1.532565726055    1.972978921361
 H   -0.290542060066    1.571379726055    4.375149921361
 H   -2.024499060066    1.233797726055    4.009330921361
 H   -1.282275060066    2.796311726055    3.497426921361
CL    0.821662200337   -1.279435233153   -2.713945361919
