9

 N   -0.806734030478    1.256190050210    2.664637657124
 C   -1.205996030478    1.877893050210    3.983397657124
 H   -1.541311030478    1.372912050210    1.955829657124
 H   -0.630990030478    0.248534050210    2.761499657124
 H    0.050304969522    1.682782050210    2.291618657124
 H   -0.387012030478    1.721596050210    4.693789657124
 H   -2.120969030478    1.384014050210    4.327970657124
 H   -1.378745030478    2.946528050210    3.816066657124
CL    0.910079882043   -1.417113093730   -3.005988436207
