9

 N   -0.820515454822    1.277649525090    2.710157619376
 C   -1.219777454822    1.899352525090    4.028917619376
 H   -1.555092454822    1.394371525090    2.001349619376
 H   -0.644771454822    0.269993525090    2.807019619376
 H    0.036523545178    1.704241525090    2.337138619376
 H   -0.400793454822    1.743055525090    4.739309619376
 H   -2.134750454822    1.405473525090    4.373490619376
 H   -1.392526454822    2.967987525090    3.861586619376
CL    0.922710979430   -1.436781359527   -3.047708875391
