9

 N   -0.834296879167    1.299108999969    2.755677581628
 C   -1.233558879167    1.920811999969    4.074437581628
 H   -1.568873879167    1.415830999969    2.046869581628
 H   -0.658552879167    0.291452999969    2.852539581628
 H    0.022742120833    1.725700999969    2.382658581628
 H   -0.414574879167    1.764514999969    4.784829581628
 H   -2.148531879167    1.426932999969    4.419010581628
 H   -1.406307879167    2.989446999969    3.907106581628
CL    0.935342076816   -1.456449625323   -3.089429314575
