9

 N   -0.958329698268    1.492244273883    3.165357241895
 C   -1.357591698268    2.113947273883    4.484117241895
 H   -1.692906698268    1.608966273883    2.456549241895
 H   -0.782585698268    0.484588273883    3.262219241895
 H   -0.101290698268    1.918836273883    2.792338241895
 H   -0.538607698268    1.957650273883    5.194509241895
 H   -2.272564698268    1.620068273883    4.828690241895
 H   -1.530340698268    3.182582273883    4.316786241895
CL    1.049021953295   -1.633464017493   -3.464913267232
