9

 N   -0.972111122612    1.513703748762    3.210877204146
 C   -1.371373122612    2.135406748762    4.529637204146
 H   -1.706688122612    1.630425748762    2.502069204146
 H   -0.796367122612    0.506047748762    3.307739204146
 H   -0.115072122612    1.940295748762    2.837858204146
 H   -0.552389122612    1.979109748762    5.240029204146
 H   -2.286346122612    1.641527748762    4.874210204146
 H   -1.544122122612    3.204041748762    4.362306204146
CL    1.061653050682   -1.653132283290   -3.506633706416
