9

 N   -1.013455395646    1.578082173400    3.347437090902
 C   -1.412717395646    2.199785173400    4.666197090902
 H   -1.748032395646    1.694804173400    2.638629090902
 H   -0.837711395646    0.570426173400    3.444299090902
 H   -0.156416395646    2.004674173400    2.974418090902
 H   -0.593733395646    2.043488173400    5.376589090902
 H   -2.327690395646    1.705906173400    5.010770090902
 H   -1.585466395646    3.268420173400    4.498866090902
CL    1.099546342841   -1.712137080680   -3.631795023968
