9

 N   -1.027236819990    1.599541648280    3.392957053154
 C   -1.426498819990    2.221244648280    4.711717053154
 H   -1.761813819990    1.716263648280    2.684149053154
 H   -0.851492819990    0.591885648280    3.489819053154
 H   -0.170197819990    2.026133648280    3.019938053154
 H   -0.607514819990    2.064947648280    5.422109053154
 H   -2.341471819990    1.727365648280    5.056290053154
 H   -1.599247819990    3.289879648280    4.544386053154
CL    1.112177440228   -1.731805346477   -3.673515463152
