9

 N   -1.123706790402    1.749757972435    3.711596788917
 C   -1.522968790402    2.371460972435    5.030356788917
 H   -1.858283790402    1.866479972435    3.002788788917
 H   -0.947962790402    0.742101972435    3.808458788917
 H   -0.266667790402    2.176349972435    3.338577788917
 H   -0.703984790402    2.215163972435    5.740748788917
 H   -2.437941790402    1.877581972435    5.374929788917
 H   -1.695717790402    3.440095972435    4.863025788917
CL    1.200595121934   -1.869483207054   -3.965558537440
