9

 N   -1.137488214746    1.771217447314    3.757116751168
 C   -1.536750214746    2.392920447314    5.075876751168
 H   -1.872065214746    1.887939447314    3.048308751168
 H   -0.961744214746    0.763561447314    3.853978751168
 H   -0.280449214746    2.197809447314    3.384097751168
 H   -0.717766214746    2.236623447314    5.786268751168
 H   -2.451723214746    1.899041447314    5.420449751168
 H   -1.709499214746    3.461555447314    4.908545751168
CL    1.213226219320   -1.889151472850   -4.007278976624
