9

 N   -1.178832487780    1.835595871952    3.893676637924
 C   -1.578094487780    2.457298871952    5.212436637924
 H   -1.913409487780    1.952317871952    3.184868637924
 H   -1.003088487780    0.827939871952    3.990538637924
 H   -0.321793487780    2.262187871952    3.520657637924
 H   -0.759110487780    2.301001871952    5.922828637924
 H   -2.493067487780    1.963419871952    5.557009637924
 H   -1.750843487780    3.525933871952    5.045105637924
CL    1.251119511480   -1.948156270240   -4.132440294176
