9

 N   -1.192613912125    1.857055346831    3.939196600176
 C   -1.591875912125    2.478758346831    5.257956600176
 H   -1.927190912125    1.973777346831    3.230388600176
 H   -1.016869912125    0.849399346831    4.036058600176
 H   -0.335574912125    2.283647346831    3.566177600176
 H   -0.772891912125    2.322461346831    5.968348600176
 H   -2.506848912125    1.984879346831    5.602529600176
 H   -1.764624912125    3.547393346831    5.090625600176
CL    1.263750608867   -1.967824536037   -4.174160733360
