10

 C    0.296822968098   -2.092675146324    0.000000000000
 C   -0.802476031902   -1.043815146324    0.000000000000
 N   -2.082084031902   -1.547604146324    0.000000000000
 H   -2.856757031902   -0.897020146324    0.000000000000
 H   -2.268755031902   -2.539655146324    0.000000000000
 O   -0.580884031902    0.169186853676    0.000000000000
 H    1.267487968098   -1.583530146324    0.000000000000
 H    0.217184968098   -2.733680146324    0.892247000000
 H    0.217184968098   -2.733680146324   -0.892247000000
CS    0.360896018169    0.505416443820    0.000000000000
