10

 C    0.231611949001   -2.115956457307    0.000000000000
 C   -0.867687050999   -1.067096457307    0.000000000000
 N   -2.147295050999   -1.570885457307    0.000000000000
 H   -2.921968050999   -0.920301457307    0.000000000000
 H   -2.333966050999   -2.562936457307    0.000000000000
 O   -0.646095050999    0.145905542693    0.000000000000
 H    1.202276949001   -1.606811457307    0.000000000000
 H    0.151973949001   -2.756961457307    0.892247000000
 H    0.151973949001   -2.756961457307   -0.892247000000
CS    0.389863004079    0.515758091851    0.000000000000
