10

 C    0.101189910809   -2.162519079274    0.000000000000
 C   -0.998109089191   -1.113659079274    0.000000000000
 N   -2.277717089191   -1.617448079274    0.000000000000
 H   -3.052390089191   -0.966864079274    0.000000000000
 H   -2.464388089191   -2.609499079274    0.000000000000
 O   -0.776517089191    0.099342920726    0.000000000000
 H    1.071854910809   -1.653374079274    0.000000000000
 H    0.021551910809   -2.803524079274    0.892247000000
 H    0.021551910809   -2.803524079274   -0.892247000000
CS    0.447796975901    0.536441387914    0.000000000000
