10

 C   -0.094443146480   -2.232363012224    0.000000000000
 C   -1.193742146480   -1.183503012224    0.000000000000
 N   -2.473350146480   -1.687292012224    0.000000000000
 H   -3.248023146480   -1.036708012224    0.000000000000
 H   -2.660021146480   -2.679343012224    0.000000000000
 O   -0.972150146480    0.029498987776    0.000000000000
 H    0.876221853520   -1.723218012224    0.000000000000
 H   -0.174081146480   -2.873368012224    0.892247000000
 H   -0.174081146480   -2.873368012224   -0.892247000000
CS    0.534697933634    0.567466332007    0.000000000000
