10

 C   -0.290076203768   -2.302206945173    0.000000000000
 C   -1.389375203768   -1.253346945173    0.000000000000
 N   -2.668983203768   -1.757135945173    0.000000000000
 H   -3.443656203768   -1.106551945173    0.000000000000
 H   -2.855654203768   -2.749186945173    0.000000000000
 O   -1.167783203768   -0.040344945173    0.000000000000
 H    0.680588796232   -1.793061945173    0.000000000000
 H   -0.369714203768   -2.943211945173    0.892247000000
 H   -0.369714203768   -2.943211945173   -0.892247000000
CS    0.621598891366    0.598491276100    0.000000000000
