10

 C   -0.420498241961   -2.348769567140    0.000000000000
 C   -1.519797241961   -1.299909567140    0.000000000000
 N   -2.799405241961   -1.803698567140    0.000000000000
 H   -3.574078241961   -1.153114567140    0.000000000000
 H   -2.986076241961   -2.795749567140    0.000000000000
 O   -1.298205241961   -0.086907567140    0.000000000000
 H    0.550166758039   -1.839624567140    0.000000000000
 H   -0.500136241961   -2.989774567140    0.892247000000
 H   -0.500136241961   -2.989774567140   -0.892247000000
CS    0.679532863188    0.619174572162    0.000000000000
