10

 C   -0.811764356538   -2.488457433040    0.000000000000
 C   -1.911063356538   -1.439597433040    0.000000000000
 N   -3.190671356538   -1.943386433040    0.000000000000
 H   -3.965344356538   -1.292802433040    0.000000000000
 H   -3.377342356538   -2.935437433040    0.000000000000
 O   -1.689471356538   -0.226595433040    0.000000000000
 H    0.158900643462   -1.979312433040    0.000000000000
 H   -0.891402356538   -3.129462433040    0.892247000000
 H   -0.891402356538   -3.129462433040   -0.892247000000
CS    0.853334778653    0.681224460348    0.000000000000
