10

 C   -1.137819452020   -2.604863987957    0.000000000000
 C   -2.237118452020   -1.556003987957    0.000000000000
 N   -3.516726452020   -2.059792987957    0.000000000000
 H   -4.291399452020   -1.409208987957    0.000000000000
 H   -3.703397452020   -3.051843987957    0.000000000000
 O   -2.015526452020   -0.343001987957    0.000000000000
 H   -0.167154452020   -2.095718987957    0.000000000000
 H   -1.217457452020   -3.245868987957    0.892247000000
 H   -1.217457452020   -3.245868987957   -0.892247000000
CS    0.998169708207    0.732932700504    0.000000000000
