10

 C   -1.203030471116   -2.628145298940    0.000000000000
 C   -2.302329471116   -1.579285298940    0.000000000000
 N   -3.581937471116   -2.083074298940    0.000000000000
 H   -4.356610471116   -1.432490298940    0.000000000000
 H   -3.768608471116   -3.075125298940    0.000000000000
 O   -2.080737471116   -0.366283298940    0.000000000000
 H   -0.232365471116   -2.119000298940    0.000000000000
 H   -1.282668471116   -3.269150298940    0.892247000000
 H   -1.282668471116   -3.269150298940   -0.892247000000
CS    1.027136694118    0.743274348535    0.000000000000
