10

 C   -1.463874547501   -2.721270542873    0.000000000000
 C   -2.563173547501   -1.672410542873    0.000000000000
 N   -3.842781547501   -2.176199542873    0.000000000000
 H   -4.617454547501   -1.525615542873    0.000000000000
 H   -4.029452547501   -3.168250542873    0.000000000000
 O   -2.341581547501   -0.459408542873    0.000000000000
 H   -0.493209547501   -2.212125542873    0.000000000000
 H   -1.543512547501   -3.362275542873    0.892247000000
 H   -1.543512547501   -3.362275542873   -0.892247000000
CS    1.143004637762    0.784640940659    0.000000000000
