10

 C   -1.529085566597   -2.744551853857    0.000000000000
 C   -2.628384566597   -1.695691853857    0.000000000000
 N   -3.907992566597   -2.199480853857    0.000000000000
 H   -4.682665566597   -1.548896853857    0.000000000000
 H   -4.094663566597   -3.191531853857    0.000000000000
 O   -2.406792566597   -0.482689853857    0.000000000000
 H   -0.558420566597   -2.235406853857    0.000000000000
 H   -1.608723566597   -3.385556853857    0.892247000000
 H   -1.608723566597   -3.385556853857   -0.892247000000
CS    1.171971623673    0.794982588690    0.000000000000
