10

 C   -2.050773719367   -2.930802341723    0.000000000000
 C   -3.150072719367   -1.881942341723    0.000000000000
 N   -4.429680719367   -2.385731341723    0.000000000000
 H   -5.204353719367   -1.735147341723    0.000000000000
 H   -4.616351719367   -3.377782341723    0.000000000000
 O   -2.928480719367   -0.668940341723    0.000000000000
 H   -1.080108719367   -2.421657341723    0.000000000000
 H   -2.130411719367   -3.571807341723    0.892247000000
 H   -2.130411719367   -3.571807341723   -0.892247000000
CS    1.403707510959    0.877715772939    0.000000000000
