10

 C   -2.181195757559   -2.977364963690    0.000000000000
 C   -3.280494757559   -1.928504963690    0.000000000000
 N   -4.560102757559   -2.432293963690    0.000000000000
 H   -5.334775757559   -1.781709963690    0.000000000000
 H   -4.746773757559   -3.424344963690    0.000000000000
 O   -3.058902757559   -0.715502963690    0.000000000000
 H   -1.210530757559   -2.468219963690    0.000000000000
 H   -2.260833757559   -3.618369963690    0.892247000000
 H   -2.260833757559   -3.618369963690   -0.892247000000
CS    1.461641482781    0.898399069001    0.000000000000
