10

 C   -2.376828814848   -3.047208896640    0.000000000000
 C   -3.476127814848   -1.998348896640    0.000000000000
 N   -4.755735814848   -2.502137896640    0.000000000000
 H   -5.530408814848   -1.851553896640    0.000000000000
 H   -4.942406814848   -3.494188896640    0.000000000000
 O   -3.254535814848   -0.785346896640    0.000000000000
 H   -1.406163814848   -2.538063896640    0.000000000000
 H   -2.456466814848   -3.688213896640    0.892247000000
 H   -2.456466814848   -3.688213896640   -0.892247000000
CS    1.548542440514    0.929424013094    0.000000000000
