10

 C   -2.702883910329   -3.163615451557    0.000000000000
 C   -3.802182910329   -2.114755451557    0.000000000000
 N   -5.081790910329   -2.618544451557    0.000000000000
 H   -5.856463910329   -1.967960451557    0.000000000000
 H   -5.268461910329   -3.610595451557    0.000000000000
 O   -3.580590910329   -0.901753451557    0.000000000000
 H   -1.732218910329   -2.654470451557    0.000000000000
 H   -2.782521910329   -3.804620451557    0.892247000000
 H   -2.782521910329   -3.804620451557   -0.892247000000
CS    1.693377370068    0.981132253249    0.000000000000
