10

 C   -3.289783082195   -3.373147250407    0.000000000000
 C   -4.389082082195   -2.324287250407    0.000000000000
 N   -5.668690082195   -2.828076250407    0.000000000000
 H   -6.443363082195   -2.177492250407    0.000000000000
 H   -5.855361082195   -3.820127250407    0.000000000000
 O   -4.167490082195   -1.111285250407    0.000000000000
 H   -2.319118082195   -2.864002250407    0.000000000000
 H   -3.369421082195   -4.014152250407    0.892247000000
 H   -3.369421082195   -4.014152250407   -0.892247000000
CS    1.954080243266    1.074207085529    0.000000000000
