10

 C   -3.420205120388   -3.419709872373    0.000000000000
 C   -4.519504120388   -2.370849872373    0.000000000000
 N   -5.799112120388   -2.874638872373    0.000000000000
 H   -6.573785120388   -2.224054872373    0.000000000000
 H   -5.985783120388   -3.866689872373    0.000000000000
 O   -4.297912120388   -1.157847872373    0.000000000000
 H   -2.449540120388   -2.910564872373    0.000000000000
 H   -3.499843120388   -4.060714872373    0.892247000000
 H   -3.499843120388   -4.060714872373   -0.892247000000
CS    2.012014215087    1.094890381591    0.000000000000
