10

 C   -3.550627158580   -3.466272494340    0.000000000000
 C   -4.649926158580   -2.417412494340    0.000000000000
 N   -5.929534158580   -2.921201494340    0.000000000000
 H   -6.704207158580   -2.270617494340    0.000000000000
 H   -6.116205158580   -3.913252494340    0.000000000000
 O   -4.428334158580   -1.204410494340    0.000000000000
 H   -2.579962158580   -2.957127494340    0.000000000000
 H   -3.630265158580   -4.107277494340    0.892247000000
 H   -3.630265158580   -4.107277494340   -0.892247000000
CS    2.069948186909    1.115573677653    0.000000000000
