10

 C   -3.615838177677   -3.489553805323    0.000000000000
 C   -4.715137177677   -2.440693805323    0.000000000000
 N   -5.994745177677   -2.944482805323    0.000000000000
 H   -6.769418177677   -2.293898805323    0.000000000000
 H   -6.181416177677   -3.936533805323    0.000000000000
 O   -4.493545177677   -1.227691805323    0.000000000000
 H   -2.645173177677   -2.980408805323    0.000000000000
 H   -3.695476177677   -4.130558805323    0.892247000000
 H   -3.695476177677   -4.130558805323   -0.892247000000
CS    2.098915172820    1.125915325684    0.000000000000
