10

 C   -3.746260215869   -3.536116427290    0.000000000000
 C   -4.845559215869   -2.487256427290    0.000000000000
 N   -6.125167215869   -2.991045427290    0.000000000000
 H   -6.899840215869   -2.340461427290    0.000000000000
 H   -6.311838215869   -3.983096427290    0.000000000000
 O   -4.623967215869   -1.274254427290    0.000000000000
 H   -2.775595215869   -3.026971427290    0.000000000000
 H   -3.825898215869   -4.177121427290    0.892247000000
 H   -3.825898215869   -4.177121427290   -0.892247000000
CS    2.156849144642    1.146598621746    0.000000000000
