10

 C   -3.941893273158   -3.605960360240    0.000000000000
 C   -5.041192273158   -2.557100360240    0.000000000000
 N   -6.320800273158   -3.060889360240    0.000000000000
 H   -7.095473273158   -2.410305360240    0.000000000000
 H   -6.507471273158   -4.052940360240    0.000000000000
 O   -4.819600273158   -1.344098360240    0.000000000000
 H   -2.971228273158   -3.096815360240    0.000000000000
 H   -4.021531273158   -4.246965360240    0.892247000000
 H   -4.021531273158   -4.246965360240   -0.892247000000
CS    2.243750102374    1.177623565840    0.000000000000
