10

 C   -4.007104292254   -3.629241671223    0.000000000000
 C   -5.106403292254   -2.580381671223    0.000000000000
 N   -6.386011292254   -3.084170671223    0.000000000000
 H   -7.160684292254   -2.433586671223    0.000000000000
 H   -6.572682292254   -4.076221671223    0.000000000000
 O   -4.884811292254   -1.367379671223    0.000000000000
 H   -3.036439292254   -3.120096671223    0.000000000000
 H   -4.086742292254   -4.270246671223    0.892247000000
 H   -4.086742292254   -4.270246671223   -0.892247000000
CS    2.272717088285    1.187965213871    0.000000000000
