10

 C   -4.202737349543   -3.699085604173    0.000000000000
 C   -5.302036349543   -2.650225604173    0.000000000000
 N   -6.581644349543   -3.154014604173    0.000000000000
 H   -7.356317349543   -2.503430604173    0.000000000000
 H   -6.768315349543   -4.146065604173    0.000000000000
 O   -5.080444349543   -1.437223604173    0.000000000000
 H   -3.232072349543   -3.189940604173    0.000000000000
 H   -4.282375349543   -4.340090604173    0.892247000000
 H   -4.282375349543   -4.340090604173   -0.892247000000
CS    2.359618046018    1.218990157964    0.000000000000
