10

 C   -4.267948368639   -3.722366915156    0.000000000000
 C   -5.367247368639   -2.673506915156    0.000000000000
 N   -6.646855368639   -3.177295915156    0.000000000000
 H   -7.421528368639   -2.526711915156    0.000000000000
 H   -6.833526368639   -4.169346915156    0.000000000000
 O   -5.145655368639   -1.460504915156    0.000000000000
 H   -3.297283368639   -3.213221915156    0.000000000000
 H   -4.347586368639   -4.363371915156    0.892247000000
 H   -4.347586368639   -4.363371915156   -0.892247000000
CS    2.388585031929    1.229331805995    0.000000000000
