10

 C   -4.594003464120   -3.838773470073    0.000000000000
 C   -5.693302464120   -2.789913470073    0.000000000000
 N   -6.972910464120   -3.293702470073    0.000000000000
 H   -7.747583464120   -2.643118470073    0.000000000000
 H   -7.159581464120   -4.285753470073    0.000000000000
 O   -5.471710464120   -1.576911470073    0.000000000000
 H   -3.623338464120   -3.329628470073    0.000000000000
 H   -4.673641464120   -4.479778470073    0.892247000000
 H   -4.673641464120   -4.479778470073   -0.892247000000
CS    2.533419961483    1.281040046150    0.000000000000
