10

 C   -4.854847540505   -3.931898714006    0.000000000000
 C   -5.954146540505   -2.883038714006    0.000000000000
 N   -7.233754540505   -3.386827714006    0.000000000000
 H   -8.008427540505   -2.736243714006    0.000000000000
 H   -7.420425540505   -4.378878714006    0.000000000000
 O   -5.732554540505   -1.670036714006    0.000000000000
 H   -3.884182540505   -3.422753714006    0.000000000000
 H   -4.934485540505   -4.572903714006    0.892247000000
 H   -4.934485540505   -4.572903714006   -0.892247000000
CS    2.649287905126    1.322406638274    0.000000000000
