10

 C   -4.985269578698   -3.978461335973    0.000000000000
 C   -6.084568578698   -2.929601335973    0.000000000000
 N   -7.364176578698   -3.433390335973    0.000000000000
 H   -8.138849578698   -2.782806335973    0.000000000000
 H   -7.550847578698   -4.425441335973    0.000000000000
 O   -5.862976578698   -1.716599335973    0.000000000000
 H   -4.014604578698   -3.469316335973    0.000000000000
 H   -5.064907578698   -4.619466335973    0.892247000000
 H   -5.064907578698   -4.619466335973   -0.892247000000
CS    2.707221876948    1.343089934337    0.000000000000
