10

 C   -5.246113655083   -4.071586579906    0.000000000000
 C   -6.345412655083   -3.022726579906    0.000000000000
 N   -7.625020655083   -3.526515579906    0.000000000000
 H   -8.399693655083   -2.875931579906    0.000000000000
 H   -7.811691655083   -4.518566579906    0.000000000000
 O   -6.123820655083   -1.809724579906    0.000000000000
 H   -4.275448655083   -3.562441579906    0.000000000000
 H   -5.325751655083   -4.712591579906    0.892247000000
 H   -5.325751655083   -4.712591579906   -0.892247000000
CS    2.823089820591    1.384456526461    0.000000000000
