10

 C   -5.311324674179   -4.094867890890    0.000000000000
 C   -6.410623674179   -3.046007890890    0.000000000000
 N   -7.690231674179   -3.549796890890    0.000000000000
 H   -8.464904674179   -2.899212890890    0.000000000000
 H   -7.876902674179   -4.541847890890    0.000000000000
 O   -6.189031674179   -1.833005890890    0.000000000000
 H   -4.340659674179   -3.585722890890    0.000000000000
 H   -5.390962674179   -4.735872890890    0.892247000000
 H   -5.390962674179   -4.735872890890   -0.892247000000
CS    2.852056806502    1.394798174492    0.000000000000
