10

 C   -5.506957731468   -4.164711823840    0.000000000000
 C   -6.606256731468   -3.115851823840    0.000000000000
 N   -7.885864731468   -3.619640823840    0.000000000000
 H   -8.660537731468   -2.969056823840    0.000000000000
 H   -8.072535731468   -4.611691823840    0.000000000000
 O   -6.384664731468   -1.902849823840    0.000000000000
 H   -4.536292731468   -3.655566823840    0.000000000000
 H   -5.586595731468   -4.805716823840    0.892247000000
 H   -5.586595731468   -4.805716823840   -0.892247000000
CS    2.938957764235    1.425823118585    0.000000000000
