17

 N   -2.098462630091   -2.694791384612   -0.002695525764
 C   -0.888274563247   -2.039585180936    0.001266098204
 N    0.345137851056   -2.638262875398    0.013304383109
 C    1.315561051112   -1.748086733787    0.001431926136
 N    1.112484213699   -0.386448600273   -0.005403234206
 H    1.916311338950    0.233511939482   -0.087391256628
 N    2.641015805349   -2.166761455467   -0.076915377099
 H    3.295552010681   -1.634958231067    0.490725399631
 H    2.719820892740   -3.167461599402    0.084667960890
 C   -0.146789528618    0.299585103258    0.007550552471
 O   -0.174369897723    1.527758188035    0.003462424043
 C   -1.219574654594   -0.674108286016    0.013751750411
 N   -2.590647956363   -0.487777240703    0.013676565695
 C   -3.084171450874   -1.726380254748    0.003346466030
 H   -4.141669364142   -1.980526876580    0.000399821604
 H   -2.223559626622   -3.701374469844   -0.011355076795
RB    0.680208742383    2.047064238872   -0.000608624806
