17

 N   -2.190719918930   -2.750853829986   -0.002256029723
 C   -0.980531852086   -2.095647626310    0.001705594245
 N    0.252880562217   -2.694325320772    0.013743879150
 C    1.223303762273   -1.804149179161    0.001871422177
 N    1.020226924860   -0.442511045647   -0.004963738165
 H    1.824054050111    0.177449494108   -0.086951760587
 N    2.548758516510   -2.222823900841   -0.076475881058
 H    3.203294721842   -1.691020676441    0.491164895672
 H    2.627563603901   -3.223524044776    0.085107456931
 C   -0.239046817457    0.243522657884    0.007990048512
 O   -0.266627186562    1.471695742661    0.003901920084
 C   -1.311831943433   -0.730170731390    0.014191246452
 N   -2.682905245202   -0.543839686077    0.014116061736
 C   -3.176428739713   -1.782442700122    0.003785962071
 H   -4.233926652981   -2.036589321954    0.000839317645
 H   -2.315816915461   -3.757436915218   -0.010915580754
RB    0.844325045575    2.146793608750   -0.001390443419
