17

 N   -2.252224778157   -2.788228793568   -0.001963032362
 C   -1.042036711313   -2.133022589892    0.001998591606
 N    0.191375702990   -2.731700284354    0.014036876511
 C    1.161798903046   -1.841524142743    0.002164419538
 N    0.958722065633   -0.479886009229   -0.004670740804
 H    1.762549190884    0.140074530526   -0.086658763226
 N    2.487253657283   -2.260198864423   -0.076182883697
 H    3.141789862615   -1.728395640023    0.491457893033
 H    2.566058744674   -3.260899008358    0.085400454292
 C   -0.300551676684    0.206147694302    0.008283045873
 O   -0.328132045789    1.434320779079    0.004194917445
 C   -1.373336802660   -0.767545694972    0.014484243813
 N   -2.744410104429   -0.581214649659    0.014409059097
 C   -3.237933598940   -1.819817663704    0.004078959432
 H   -4.295431512208   -2.073964285536    0.001132315006
 H   -2.377321774688   -3.794811878800   -0.010622583393
RB    0.953735914370    2.213279855335   -0.001911655828
