17

 N   -2.282977207770   -2.806916275359   -0.001816533681
 C   -1.072789140926   -2.151710071683    0.002145090287
 N    0.160623273377   -2.750387766145    0.014183375192
 C    1.131046473433   -1.860211624534    0.002310918219
 N    0.927969636020   -0.498573491020   -0.004524242123
 H    1.731796761271    0.121387048735   -0.086512264545
 N    2.456501227670   -2.278886346214   -0.076036385016
 H    3.111037433002   -1.747083121814    0.491604391714
 H    2.535306315061   -3.279586490149    0.085546952973
 C   -0.331304106297    0.187460212511    0.008429544554
 O   -0.358884475402    1.415633297288    0.004341416126
 C   -1.404089232273   -0.786233176763    0.014630742494
 N   -2.775162534042   -0.599902131450    0.014555557778
 C   -3.268686028553   -1.838505145495    0.004225458113
 H   -4.326183941821   -2.092651767327    0.001278813687
 H   -2.408074204301   -3.813499360591   -0.010476084712
RB    1.008441348768    2.246522978628   -0.002172262032
