17

 N   -2.313729637383   -2.825603757150   -0.001670035001
 C   -1.103541570539   -2.170397553474    0.002291588967
 N    0.129870843764   -2.769075247936    0.014329873872
 C    1.100294043820   -1.878899106325    0.002457416899
 N    0.897217206407   -0.517260972811   -0.004377743443
 H    1.701044331658    0.102699566944   -0.086365765865
 N    2.425748798057   -2.297573828005   -0.075889886336
 H    3.080285003389   -1.765770603605    0.491750890394
 H    2.504553885448   -3.298273971940    0.085693451653
 C   -0.362056535910    0.168772730720    0.008576043234
 O   -0.389636905015    1.396945815497    0.004487914806
 C   -1.434841661886   -0.804920658554    0.014777241174
 N   -2.805914963655   -0.618589613241    0.014702056458
 C   -3.299438458166   -1.857192627286    0.004371956793
 H   -4.356936371434   -2.111339249118    0.001425312367
 H   -2.438826633914   -3.832186842382   -0.010329586032
RB    1.063146783165    2.279766101920   -0.002432868237
