17

 N   -2.344482066996   -2.844291238941   -0.001523536320
 C   -1.134294000152   -2.189085035265    0.002438087648
 N    0.099118414151   -2.787762729727    0.014476372553
 C    1.069541614207   -1.897586588116    0.002603915580
 N    0.866464776794   -0.535948454602   -0.004231244762
 H    1.670291902045    0.084012085153   -0.086219267184
 N    2.394996368444   -2.316261309796   -0.075743387655
 H    3.049532573776   -1.784458085396    0.491897389075
 H    2.473801455835   -3.316961453731    0.085839950334
 C   -0.392808965523    0.150085248929    0.008722541915
 O   -0.420389334628    1.378258333706    0.004634413487
 C   -1.465594091499   -0.823608140345    0.014923739855
 N   -2.836667393268   -0.637277095032    0.014848555139
 C   -3.330190887779   -1.875880109077    0.004518455474
 H   -4.387688801047   -2.130026730909    0.001571811048
 H   -2.469579063527   -3.850874324173   -0.010183087351
RB    1.117852217562    2.313009225213   -0.002693474441
