17

 N   -2.559749074288   -2.975103611479   -0.000498045557
 C   -1.349561007444   -2.319897407803    0.003463578411
 N   -0.116148593141   -2.918575102265    0.015501863316
 C    0.854274606915   -2.028398960654    0.003629406343
 N    0.651197769502   -0.666760827140   -0.003205753999
 H    1.455024894753   -0.046800287385   -0.085193776421
 N    2.179729361152   -2.447073682334   -0.074717896892
 H    2.834265566484   -1.915270457934    0.492922879838
 H    2.258534448543   -3.447773826269    0.086865441097
 C   -0.608075972815    0.019272876391    0.009748032678
 O   -0.635656341920    1.247445961168    0.005659904250
 C   -1.680861098791   -0.954420512883    0.015949230618
 N   -3.051934400560   -0.768089467570    0.015874045902
 C   -3.545457895071   -2.006692481615    0.005543946237
 H   -4.602955808339   -2.260839103447    0.002597301811
 H   -2.684846070819   -3.981686696711   -0.009157596588
RB    1.500790258344    2.545711088261   -0.004517717872
