17

 N   -2.682758792741   -3.049853538644    0.000087949165
 C   -1.472570725897   -2.394647334968    0.004049573133
 N   -0.239158311594   -2.993325029430    0.016087858038
 C    0.731264888462   -2.103148887819    0.004215401065
 N    0.528188051049   -0.741510754305   -0.002619759277
 H    1.332015176300   -0.121550214550   -0.084607781699
 N    2.056719642699   -2.521823609499   -0.074131902170
 H    2.711255848031   -1.990020385099    0.493508874560
 H    2.135524730090   -3.522523753434    0.087451435819
 C   -0.731085691268   -0.055477050774    0.010334027400
 O   -0.758666060373    1.172696034003    0.006245898972
 C   -1.803870817244   -1.029170440048    0.016535225340
 N   -3.174944119013   -0.842839394735    0.016460040624
 C   -3.668467613524   -2.081442408780    0.006129940959
 H   -4.725965526792   -2.335589030612    0.003183296533
 H   -2.807855789272   -4.056436623876   -0.008571601866
RB    1.719611995934    2.678683581431   -0.005560142689
