17

 N   -2.713511222354   -3.068541020435    0.000234447846
 C   -1.503323155510   -2.413334816759    0.004196071814
 N   -0.269910741207   -3.012012511221    0.016234356719
 C    0.700512458849   -2.121836369610    0.004361899746
 N    0.497435621436   -0.760198236096   -0.002473260596
 H    1.301262746687   -0.140237696341   -0.084461283018
 N    2.025967213086   -2.540511091290   -0.073985403489
 H    2.680503418418   -2.008707866890    0.493655373241
 H    2.104772300477   -3.541211235225    0.087597934500
 C   -0.761838120881   -0.074164532565    0.010480526081
 O   -0.789418489986    1.154008552212    0.006392397653
 C   -1.834623246857   -1.047857921839    0.016681724021
 N   -3.205696548626   -0.861526876526    0.016606539305
 C   -3.699220043137   -2.100129890571    0.006276439640
 H   -4.756717956405   -2.354276512403    0.003329795214
 H   -2.838608218885   -4.075124105667   -0.008425103185
RB    1.774317430331    2.711926704724   -0.005820748894
