17

 N   -2.959530659259   -3.218040874764    0.001406437290
 C   -1.749342592415   -2.562834671088    0.005368061258
 N   -0.515930178112   -3.161512365550    0.017406346163
 C    0.454493021944   -2.271336223939    0.005533889190
 N    0.251416184531   -0.909698090425   -0.001301271152
 H    1.055243309782   -0.289737550670   -0.083289293574
 N    1.779947776181   -2.690010945619   -0.072813414045
 H    2.434483981513   -2.158207721219    0.494827362685
 H    1.858752863572   -3.690711089554    0.088769923944
 C   -1.007857557786   -0.223664386894    0.011652515525
 O   -1.035437926891    1.004508697883    0.007564387097
 C   -2.080642683762   -1.197357776168    0.017853713465
 N   -3.451715985531   -1.011026730855    0.017778528749
 C   -3.945239480042   -2.249629744900    0.007448429084
 H   -5.002737393310   -2.503776366732    0.004501784658
 H   -3.084627655790   -4.224623959996   -0.007253113741
RB    2.211960905511    2.977871691065   -0.007905598528
