17

 N   -2.990283088873   -3.236728356555    0.001552935971
 C   -1.780095022029   -2.581522152879    0.005514559939
 N   -0.546682607726   -3.180199847341    0.017552844844
 C    0.423740592330   -2.290023705730    0.005680387871
 N    0.220663754917   -0.928385572216   -0.001154772471
 H    1.024490880168   -0.308425032461   -0.083142794893
 N    1.749195346567   -2.708698427410   -0.072666915364
 H    2.403731551899   -2.176895203010    0.494973861366
 H    1.828000433958   -3.709398571345    0.088916422625
 C   -1.038609987400   -0.242351868685    0.011799014206
 O   -1.066190356505    0.985821216092    0.007710885778
 C   -2.111395113376   -1.216045257959    0.018000212146
 N   -3.482468415145   -1.029714212646    0.017925027430
 C   -3.975991909656   -2.268317226691    0.007594927765
 H   -5.033489822924   -2.522463848523    0.004648283339
 H   -3.115380085404   -4.243311441787   -0.007106615060
RB    2.266666339908    3.011114814357   -0.008166204733
