17

 N   -3.113292807325   -3.311478283720    0.002138930693
 C   -1.903104740481   -2.656272080044    0.006100554661
 N   -0.669692326178   -3.254949774506    0.018138839566
 C    0.300730873878   -2.364773632895    0.006266382593
 N    0.097654036465   -1.003135499381   -0.000568777749
 H    0.901481161716   -0.383174959626   -0.082556800171
 N    1.626185628115   -2.783448354575   -0.072080920642
 H    2.280721833447   -2.251645130175    0.495559856088
 H    1.704990715506   -3.784148498510    0.089502417347
 C   -1.161619705852   -0.317101795850    0.012385008928
 O   -1.189200074957    0.911071288927    0.008296880500
 C   -2.234404831828   -1.290795185124    0.018586206868
 N   -3.605478133597   -1.104464139811    0.018511022152
 C   -4.099001628108   -2.343067153856    0.008180922487
 H   -5.156499541376   -2.597213775688    0.005234278061
 H   -3.238389803856   -4.318061368952   -0.006520620338
RB    2.485488077498    3.144087307528   -0.009208629550
