17

 N   -3.174797666552   -3.348853247302    0.002431928054
 C   -1.964609599708   -2.693647043626    0.006393552022
 N   -0.731197185405   -3.292324738088    0.018431836927
 C    0.239226014651   -2.402148596477    0.006559379954
 N    0.036149177238   -1.040510462963   -0.000275780388
 H    0.839976302489   -0.420549923208   -0.082263802810
 N    1.564680768888   -2.820823318157   -0.071787923281
 H    2.219216974220   -2.289020093757    0.495852853449
 H    1.643485856279   -3.821523462092    0.089795414708
 C   -1.223124565079   -0.354476759432    0.012678006289
 O   -1.250704934184    0.873696325345    0.008589877861
 C   -2.295909691055   -1.328170148706    0.018879204229
 N   -3.666982992824   -1.141839103393    0.018804019513
 C   -4.160506487335   -2.380442117438    0.008473919848
 H   -5.218004400603   -2.634588739270    0.005527275422
 H   -3.299894663083   -4.355436332534   -0.006227622977
RB    2.594898946292    3.210573554113   -0.009729841959
