17

 N   -3.236302525778   -3.386228210884    0.002724925415
 C   -2.026114458934   -2.731022007208    0.006686549383
 N   -0.792702044631   -3.329699701670    0.018724834288
 C    0.177721155425   -2.439523560059    0.006852377315
 N   -0.025355681988   -1.077885426545    0.000017216973
 H    0.778471443263   -0.457924886790   -0.081970805449
 N    1.503175909662   -2.858198281739   -0.071494925920
 H    2.157712114994   -2.326395057339    0.496145850810
 H    1.581980997053   -3.858898425674    0.090088412069
 C   -1.284629424305   -0.391851723014    0.012971003650
 O   -1.312209793410    0.836321361763    0.008882875222
 C   -2.357414550281   -1.365545112288    0.019172201590
 N   -3.728487852050   -1.179214066975    0.019097016874
 C   -4.222011346561   -2.417817081020    0.008766917209
 H   -5.279509259829   -2.671963702852    0.005820272783
 H   -3.361399522309   -4.392811296116   -0.005934625616
RB    2.704309815087    3.277059800698   -0.010251054368
