17

 N   -3.267054955391   -3.404915692675    0.002871424095
 C   -2.056866888547   -2.749709488999    0.006833048063
 N   -0.823454474244   -3.348387183461    0.018871332968
 C    0.146968725812   -2.458211041850    0.006998875995
 N   -0.056108111601   -1.096572908336    0.000163715653
 H    0.747719013650   -0.476612368581   -0.081824306769
 N    1.472423480049   -2.876885763530   -0.071348427240
 H    2.126959685381   -2.345082539130    0.496292349490
 H    1.551228567440   -3.877585907465    0.090234910749
 C   -1.315381853918   -0.410539204805    0.013117502330
 O   -1.342962223023    0.817633879972    0.009029373902
 C   -2.388166979894   -1.384232594079    0.019318700270
 N   -3.759240281663   -1.197901548766    0.019243515554
 C   -4.252763776174   -2.436504562811    0.008913415889
 H   -5.310261689442   -2.690651184643    0.005966771463
 H   -3.392151951922   -4.411498777907   -0.005788126936
RB    2.759015249485    3.310302923991   -0.010511660572
