17

 N   -3.328559814617   -3.442290656258    0.003164421456
 C   -2.118371747773   -2.787084452582    0.007126045424
 N   -0.884959333470   -3.385762147044    0.019164330329
 C    0.085463866586   -2.495586005433    0.007291873356
 N   -0.117612970827   -1.133947871919    0.000456713014
 H    0.686214154424   -0.513987332164   -0.081531309408
 N    1.410918620823   -2.914260727113   -0.071055429879
 H    2.065454826155   -2.382457502713    0.496585346851
 H    1.489723708214   -3.914960871048    0.090527908110
 C   -1.376886713144   -0.447914168388    0.013410499691
 O   -1.404467082249    0.780258916389    0.009322371263
 C   -2.449671839120   -1.421607557662    0.019611697631
 N   -3.820745140889   -1.235276512349    0.019536512915
 C   -4.314268635400   -2.473879526394    0.009206413250
 H   -5.371766548668   -2.728026148226    0.006259768824
 H   -3.453656811148   -4.448873741490   -0.005495129575
RB    2.868426118279    3.376789170576   -0.011032872981
