17

 N   -3.543826821910   -3.573103028795    0.004189912220
 C   -2.333638755066   -2.917896825119    0.008151536188
 N   -1.100226340763   -3.516574519581    0.020189821093
 C   -0.129803140707   -2.626398377970    0.008317364120
 N   -0.332879978120   -1.264760244456    0.001482203778
 H    0.470947147131   -0.644799704701   -0.080505818644
 N    1.195651613530   -3.045073099650   -0.070029939115
 H    1.850187818862   -2.513269875250    0.497610837615
 H    1.274456700921   -4.045773243585    0.091553398874
 C   -1.592153720437   -0.578726540925    0.014435990455
 O   -1.619734089542    0.649446543852    0.010347862027
 C   -2.664938846413   -1.552419930199    0.020637188395
 N   -4.036012148182   -1.366088884886    0.020562003679
 C   -4.529535642693   -2.604691898931    0.010231904014
 H   -5.587033555961   -2.858838520763    0.007285259588
 H   -3.668923818441   -4.579686114027   -0.004469638811
RB    3.251364159061    3.609491033624   -0.012857116411
