17

 N   -3.574579251523   -3.591790510587    0.004336410900
 C   -2.364391184679   -2.936584306911    0.008298034868
 N   -1.130978770376   -3.535262001373    0.020336319773
 C   -0.160555570320   -2.645085859762    0.008463862800
 N   -0.363632407733   -1.283447726248    0.001628702458
 H    0.440194717518   -0.663487186493   -0.080359319964
 N    1.164899183917   -3.063760581442   -0.069883440435
 H    1.819435389249   -2.531957357042    0.497757336295
 H    1.243704271308   -4.064460725377    0.091699897554
 C   -1.622906150050   -0.597414022717    0.014582489135
 O   -1.650486519155    0.630759062060    0.010494360707
 C   -2.695691276026   -1.571107411991    0.020783687075
 N   -4.066764577795   -1.384776366678    0.020708502359
 C   -4.560288072306   -2.623379380723    0.010378402694
 H   -5.617785985574   -2.877526002555    0.007431758268
 H   -3.699676248054   -4.598373595819   -0.004323140131
RB    3.306069593459    3.642734156917   -0.013117722616
