17

 N   -3.605331681136   -3.610477992378    0.004482909581
 C   -2.395143614292   -2.955271788702    0.008444533549
 N   -1.161731199989   -3.553949483164    0.020482818454
 C   -0.191307999933   -2.663773341553    0.008610361481
 N   -0.394384837346   -1.302135208039    0.001775201139
 H    0.409442287905   -0.682174668284   -0.080212821283
 N    1.134146754304   -3.082448063233   -0.069736941754
 H    1.788682959636   -2.550644838833    0.497903834976
 H    1.212951841695   -4.083148207168    0.091846396235
 C   -1.653658579663   -0.616101504508    0.014728987816
 O   -1.681238948768    0.612071580269    0.010640859388
 C   -2.726443705639   -1.589794893782    0.020930185756
 N   -4.097517007408   -1.403463848469    0.020855001040
 C   -4.591040501919   -2.642066862514    0.010524901375
 H   -5.648538415187   -2.896213484346    0.007578256949
 H   -3.730428677667   -4.617061077610   -0.004176641450
RB    3.360775027856    3.675977280209   -0.013378328820
