17

 N   -3.666836540362   -3.647852955960    0.004775906942
 C   -2.456648473518   -2.992646752284    0.008737530910
 N   -1.223236059215   -3.591324446746    0.020775815815
 C   -0.252812859159   -2.701148305135    0.008903358842
 N   -0.455889696572   -1.339510171621    0.002068198500
 H    0.347937428679   -0.719549631866   -0.079919823922
 N    1.072641895078   -3.119823026815   -0.069443944393
 H    1.727178100410   -2.588019802415    0.498196832337
 H    1.151446982469   -4.120523170750    0.092139393596
 C   -1.715163438889   -0.653476468090    0.015021985177
 O   -1.742743807994    0.574696616687    0.010933856749
 C   -2.787948564865   -1.627169857364    0.021223183117
 N   -4.159021866634   -1.440838812051    0.021147998401
 C   -4.652545361145   -2.679441826096    0.010817898736
 H   -5.710043274413   -2.933588447928    0.007871254310
 H   -3.791933536893   -4.654436041192   -0.003883644089
RB    3.470185896651    3.742463526795   -0.013899541229
