17

 N   -3.697588969975   -3.666540437751    0.004922405623
 C   -2.487400903131   -3.011334234075    0.008884029591
 N   -1.253988488828   -3.610011928537    0.020922314496
 C   -0.283565288772   -2.719835786926    0.009049857523
 N   -0.486642126185   -1.358197653412    0.002214697181
 H    0.317184999066   -0.738237113657   -0.079773325241
 N    1.041889465465   -3.138510508606   -0.069297445712
 H    1.696425670797   -2.606707284206    0.498343331018
 H    1.120694552856   -4.139210652541    0.092285892277
 C   -1.745915868502   -0.672163949881    0.015168483858
 O   -1.773496237607    0.556009134896    0.011080355430
 C   -2.818700994478   -1.645857339155    0.021369681798
 N   -4.189774296247   -1.459526293842    0.021294497082
 C   -4.683297790758   -2.698129307887    0.010964397417
 H   -5.740795704026   -2.952275929719    0.008017752991
 H   -3.822685966506   -4.673123522983   -0.003737145408
RB    3.524891331048    3.775706650087   -0.014160147433
