17

 N   -3.728341399589   -3.685227919542    0.005068904303
 C   -2.518153332745   -3.030021715866    0.009030528271
 N   -1.284740918442   -3.628699410328    0.021068813176
 C   -0.314317718386   -2.738523268717    0.009196356203
 N   -0.517394555799   -1.376885135203    0.002361195861
 H    0.286432569452   -0.756924595448   -0.079626826561
 N    1.011137035851   -3.157197990397   -0.069150947032
 H    1.665673241183   -2.625394765997    0.498489829698
 H    1.089942123242   -4.157898134332    0.092432390957
 C   -1.776668298116   -0.690851431672    0.015314982538
 O   -1.804248667221    0.537321653105    0.011226854110
 C   -2.849453424092   -1.664544820946    0.021516180478
 N   -4.220526725861   -1.478213775633    0.021440995762
 C   -4.714050220372   -2.716816789678    0.011110896097
 H   -5.771548133640   -2.970963411510    0.008164251671
 H   -3.853438396120   -4.691811004774   -0.003590646728
RB    3.579596765446    3.808949773380   -0.014420753638
