17

 N   -3.789846258815   -3.722602883125    0.005361901664
 C   -2.579658191971   -3.067396679449    0.009323525632
 N   -1.346245777668   -3.666074373911    0.021361810537
 C   -0.375822577612   -2.775898232300    0.009489353564
 N   -0.578899415025   -1.414260098786    0.002654193222
 H    0.224927710226   -0.794299559031   -0.079333829200
 N    0.949632176625   -3.194572953980   -0.068857949671
 H    1.604168381957   -2.662769729580    0.498782827059
 H    1.028437264016   -4.195273097915    0.092725388318
 C   -1.838173157342   -0.728226395255    0.015607979899
 O   -1.865753526447    0.499946689522    0.011519851471
 C   -2.910958283318   -1.701919784529    0.021809177839
 N   -4.282031585087   -1.515588739216    0.021733993123
 C   -4.775555079598   -2.754191753261    0.011403893458
 H   -5.833052992866   -3.008338375093    0.008457249032
 H   -3.914943255346   -4.729185968357   -0.003297649367
RB    3.689007634241    3.875436019965   -0.014941966046
