17

 N   -3.851351118041   -3.759977846707    0.005654899025
 C   -2.641163051197   -3.104771643031    0.009616522993
 N   -1.407750636894   -3.703449337493    0.021654807898
 C   -0.437327436838   -2.813273195882    0.009782350925
 N   -0.640404274251   -1.451635062368    0.002947190583
 H    0.163422851000   -0.831674522613   -0.079040831839
 N    0.888127317399   -3.231947917562   -0.068564952310
 H    1.542663522731   -2.700144693162    0.499075824420
 H    0.966932404790   -4.232648061497    0.093018385679
 C   -1.899678016568   -0.765601358837    0.015900977260
 O   -1.927258385673    0.462571725940    0.011812848832
 C   -2.972463142544   -1.739294748111    0.022102175200
 N   -4.343536444313   -1.552963702798    0.022026990484
 C   -4.837059938824   -2.791566716843    0.011696890819
 H   -5.894557852092   -3.045713338675    0.008750246393
 H   -3.976448114572   -4.766560931939   -0.003004652006
RB    3.798418503035    3.941922266550   -0.015463178455
