17

 N   -4.035865695720   -3.872102737454    0.006533891108
 C   -2.825677628876   -3.216896533778    0.010495515076
 N   -1.592265214573   -3.815574228240    0.022533799981
 C   -0.621842014517   -2.925398086629    0.010661343008
 N   -0.824918851930   -1.563759953115    0.003826182666
 H   -0.021091726679   -0.943799413360   -0.078161839756
 N    0.703612739720   -3.344072808309   -0.067685960227
 H    1.358148945052   -2.812269583909    0.499954816503
 H    0.782417827111   -4.344772952244    0.093897377762
 C   -2.084192594247   -0.877726249584    0.016779969343
 O   -2.111772963352    0.350446835193    0.012691840915
 C   -3.156977720223   -1.851419638858    0.022981167283
 N   -4.528051021992   -1.665088593545    0.022905982567
 C   -5.021574516503   -2.903691607590    0.012575882902
 H   -6.079072429771   -3.157838229422    0.009629238476
 H   -4.160962692251   -4.878685822686   -0.002125659923
RB    4.126651109420    4.141381006306   -0.017026815681
