17

 N   -4.066618125333   -3.890790219245    0.006680389789
 C   -2.856430058489   -3.235584015569    0.010642013757
 N   -1.623017644186   -3.834261710031    0.022680298662
 C   -0.652594444130   -2.944085568420    0.010807841689
 N   -0.855671281543   -1.582447434906    0.003972681347
 H   -0.051844156292   -0.962486895151   -0.078015341075
 N    0.672860310107   -3.362760290100   -0.067539461546
 H    1.327396515439   -2.830957065700    0.500101315184
 H    0.751665397498   -4.363460434035    0.094043876443
 C   -2.114945023860   -0.896413731375    0.016926468024
 O   -2.142525392965    0.331759353402    0.012838339596
 C   -3.187730149836   -1.870107120649    0.023127665964
 N   -4.558803451605   -1.683776075336    0.023052481248
 C   -5.052326946116   -2.922379089381    0.012722381583
 H   -6.109824859384   -3.176525711213    0.009775737157
 H   -4.191715121864   -4.897373304477   -0.001979161242
RB    4.181356543817    4.174624129599   -0.017287421886
