17

 N   -4.097370554947   -3.909477701036    0.006826888469
 C   -2.887182488103   -3.254271497360    0.010788512437
 N   -1.653770073800   -3.852949191822    0.022826797342
 C   -0.683346873744   -2.962773050211    0.010954340369
 N   -0.886423711157   -1.601134916697    0.004119180027
 H   -0.082596585906   -0.981174376942   -0.077868842395
 N    0.642107880493   -3.381447771891   -0.067392962866
 H    1.296644085825   -2.849644547491    0.500247813864
 H    0.720912967884   -4.382147915826    0.094190375123
 C   -2.145697453474   -0.915101213166    0.017072966704
 O   -2.173277822579    0.313071871611    0.012984838276
 C   -3.218482579450   -1.888794602440    0.023274164644
 N   -4.589555881219   -1.702463557127    0.023198979928
 C   -5.083079375730   -2.941066571172    0.012868880263
 H   -6.140577288998   -3.195213193004    0.009922235837
 H   -4.222467551478   -4.916060786268   -0.001832662562
RB    4.236061978215    4.207867252891   -0.017548028090
