17

 N   -4.220380273399   -3.984227628200    0.007412883191
 C   -3.010192206555   -3.329021424524    0.011374507159
 N   -1.776779792252   -3.927699118986    0.023412792064
 C   -0.806356592196   -3.037522977375    0.011540335091
 N   -1.009433429609   -1.675884843861    0.004705174749
 H   -0.205606304358   -1.055924304106   -0.077282847673
 N    0.519098162041   -3.456197699055   -0.066806968144
 H    1.173634367373   -2.924394474655    0.500833808586
 H    0.597903249432   -4.456897842990    0.094776369845
 C   -2.268707171926   -0.989851140330    0.017658961426
 O   -2.296287541031    0.238321944447    0.013570832998
 C   -3.341492297902   -1.963544529604    0.023860159366
 N   -4.712565599671   -1.777213484291    0.023784974650
 C   -5.206089094182   -3.015816498336    0.013454874985
 H   -6.263587007450   -3.269963120168    0.010508230559
 H   -4.345477269930   -4.990810713432   -0.001246667840
RB    4.454883715804    4.340839746062   -0.018590452907
