17

 N   -4.281885132626   -4.021602591783    0.007705880552
 C   -3.071697065782   -3.366396388107    0.011667504520
 N   -1.838284651479   -3.965074082569    0.023705789425
 C   -0.867861451423   -3.074897940958    0.011833332452
 N   -1.070938288836   -1.713259807444    0.004998172110
 H   -0.267111163585   -1.093299267689   -0.076989850312
 N    0.457593302814   -3.493572662638   -0.066513970783
 H    1.112129508146   -2.961769438238    0.501126805947
 H    0.536398390205   -4.494272806573    0.095069367206
 C   -2.330212031153   -1.027226103913    0.017951958787
 O   -2.357792400258    0.200946980864    0.013863830359
 C   -3.402997157129   -2.000919493187    0.024153156727
 N   -4.774070458898   -1.814588447874    0.024077972011
 C   -5.267593953409   -3.053191461919    0.013747872346
 H   -6.325091866677   -3.307338083751    0.010801227920
 H   -4.406982129157   -5.028185677015   -0.000953670479
RB    4.564294584599    4.407325992647   -0.019111665316
