17

 N   -4.312637562239   -4.040290073574    0.007852379233
 C   -3.102449495395   -3.385083869898    0.011814003201
 N   -1.869037081092   -3.983761564360    0.023852288106
 C   -0.898613881036   -3.093585422749    0.011979831133
 N   -1.101690718449   -1.731947289235    0.005144670791
 H   -0.297863593198   -1.111986749480   -0.076843351631
 N    0.426840873201   -3.512260144429   -0.066367472102
 H    1.081377078533   -2.980456920029    0.501273304628
 H    0.505645960592   -4.512960288364    0.095215865887
 C   -2.360964460766   -1.045913585704    0.018098457468
 O   -2.388544829871    0.182259499073    0.014010329040
 C   -3.433749586742   -2.019606974978    0.024299655408
 N   -4.804822888511   -1.833275929665    0.024224470692
 C   -5.298346383022   -3.071878943710    0.013894371027
 H   -6.355844296290   -3.326025565542    0.010947726601
 H   -4.437734558770   -5.046873158806   -0.000807171798
RB    4.619000018996    4.440569115939   -0.019372271521
