17

 N   -4.404894851078   -4.096352518947    0.008291875275
 C   -3.194706784234   -3.441146315271    0.012253499243
 N   -1.961294369931   -4.039824009733    0.024291784148
 C   -0.990871169875   -3.149647868122    0.012419327175
 N   -1.193948007288   -1.788009734608    0.005584166833
 H   -0.390120882037   -1.168049194853   -0.076403855589
 N    0.334583584362   -3.568322589802   -0.065927976060
 H    0.989119789694   -3.036519365402    0.501712800670
 H    0.413388671753   -4.569022733737    0.095655361929
 C   -2.453221749605   -1.101976031077    0.018537953510
 O   -2.480802118710    0.126197053700    0.014449825082
 C   -3.526006875581   -2.075669420351    0.024739151450
 N   -4.897080177350   -1.889338375038    0.024663966734
 C   -5.390603671861   -3.127941389083    0.014333867069
 H   -6.448101585129   -3.382088010915    0.011387222643
 H   -4.529991847609   -5.102935604179   -0.000367675756
RB    4.783116322189    4.540298485817   -0.020154090134
