17

 N   -4.497152139918   -4.152414964321    0.008731371316
 C   -3.286964073074   -3.497208760645    0.012692995284
 N   -2.053551658771   -4.095886455107    0.024731280189
 C   -1.083128458715   -3.205710313496    0.012858823216
 N   -1.286205296128   -1.844072179982    0.006023662874
 H   -0.482378170877   -1.224111640227   -0.075964359548
 N    0.242326295522   -3.624385035176   -0.065488480019
 H    0.896862500854   -3.092581810776    0.502152296711
 H    0.321131382913   -4.625085179111    0.096094857970
 C   -2.545479038445   -1.158038476451    0.018977449551
 O   -2.573059407550    0.070134608326    0.014889321123
 C   -3.618264164421   -2.131731865725    0.025178647491
 N   -4.989337466190   -1.945400820412    0.025103462775
 C   -5.482860960701   -3.184003834457    0.014773363110
 H   -6.540358873969   -3.438150456289    0.011826718684
 H   -4.622249136449   -5.158998049553    0.000071820285
RB    4.947232625381    4.640027855695   -0.020935908747
