17

 N   -4.527904569531   -4.171102446112    0.008877869997
 C   -3.317716502687   -3.515896242436    0.012839493965
 N   -2.084304088384   -4.114573936898    0.024877778870
 C   -1.113880888328   -3.224397795287    0.013005321897
 N   -1.316957725741   -1.862759661773    0.006170161555
 H   -0.513130600490   -1.242799122018   -0.075817860867
 N    0.211573865909   -3.643072516967   -0.065341981338
 H    0.866110071241   -3.111269292567    0.502298795392
 H    0.290378953300   -4.643772660902    0.096241356651
 C   -2.576231468058   -1.176725958242    0.019123948232
 O   -2.603811837163    0.051447126535    0.015035819804
 C   -3.649016594034   -2.150419347516    0.025325146172
 N   -5.020089895803   -1.964088302203    0.025249961456
 C   -5.513613390314   -3.202691316248    0.014919861791
 H   -6.571111303582   -3.456837938080    0.011973217365
 H   -4.653001566062   -5.177685531344    0.000218318966
RB    5.001938059778    4.673270978988   -0.021196514951
