17

 N   -4.558656999144   -4.189789927903    0.009024368677
 C   -3.348468932300   -3.534583724227    0.012985992645
 N   -2.115056517997   -4.133261418689    0.025024277550
 C   -1.144633317941   -3.243085277078    0.013151820577
 N   -1.347710155354   -1.881447143564    0.006316660235
 H   -0.543883030103   -1.261486603809   -0.075671362187
 N    0.180821436296   -3.661759998758   -0.065195482658
 H    0.835357641628   -3.129956774358    0.502445294072
 H    0.259626523687   -4.662460142693    0.096387855331
 C   -2.606983897671   -1.195413440033    0.019270446912
 O   -2.634564266776    0.032759644744    0.015182318484
 C   -3.679769023647   -2.169106829307    0.025471644852
 N   -5.050842325416   -1.982775783994    0.025396460136
 C   -5.544365819927   -3.221378798039    0.015066360471
 H   -6.601863733195   -3.475525419871    0.012119716045
 H   -4.683753995675   -5.196373013135    0.000364817646
RB    5.056643494176    4.706514102280   -0.021457121155
