17

 N   -4.589409428757   -4.208477409694    0.009170867358
 C   -3.379221361913   -3.553271206018    0.013132491326
 N   -2.145808947610   -4.151948900480    0.025170776231
 C   -1.175385747554   -3.261772758869    0.013298319258
 N   -1.378462584967   -1.900134625355    0.006463158916
 H   -0.574635459716   -1.280174085600   -0.075524863506
 N    0.150069006683   -3.680447480549   -0.065048983977
 H    0.804605212015   -3.148644256149    0.502591792753
 H    0.228874094074   -4.681147624484    0.096534354012
 C   -2.637736327284   -1.214100921824    0.019416945593
 O   -2.665316696389    0.014072162953    0.015328817165
 C   -3.710521453260   -2.187794311098    0.025618143533
 N   -5.081594755029   -2.001463265785    0.025542958817
 C   -5.575118249540   -3.240066279830    0.015212859152
 H   -6.632616162808   -3.494212901662    0.012266214726
 H   -4.714506425288   -5.215060494926    0.000511316327
RB    5.111348928573    4.739757225573   -0.021717727360
