17

 N   -4.620161858370   -4.227164891485    0.009317366038
 C   -3.409973791526   -3.571958687809    0.013278990006
 N   -2.176561377223   -4.170636382271    0.025317274911
 C   -1.206138177167   -3.280460240660    0.013444817938
 N   -1.409215014580   -1.918822107146    0.006609657596
 H   -0.605387889329   -1.298861567391   -0.075378364826
 N    0.119316577070   -3.699134962340   -0.064902485297
 H    0.773852782402   -3.167331737940    0.502738291433
 H    0.198121664461   -4.699835106275    0.096680852692
 C   -2.668488756897   -1.232788403615    0.019563444273
 O   -2.696069126002   -0.004615318838    0.015475315845
 C   -3.741273882873   -2.206481792889    0.025764642213
 N   -5.112347184642   -2.020150747576    0.025689457497
 C   -5.605870679153   -3.258753761621    0.015359357832
 H   -6.663368592421   -3.512900383453    0.012412713406
 H   -4.745258854901   -5.233747976717    0.000657815007
RB    5.166054362971    4.773000348865   -0.021978333564
