17

 N   -4.773924006436   -4.320602300441    0.010049859441
 C   -3.563735939592   -3.665396096765    0.014011483409
 N   -2.330323525289   -4.264073791227    0.026049768314
 C   -1.359900325233   -3.373897649616    0.014177311341
 N   -1.562977162646   -2.012259516102    0.007342150999
 H   -0.759150037395   -1.392298976347   -0.074645871423
 N   -0.034445570996   -3.792572371296   -0.064169991894
 H    0.620090634336   -3.260769146896    0.503470784836
 H    0.044359516395   -4.793272515231    0.097413346095
 C   -2.822250904963   -1.326225812571    0.020295937676
 O   -2.849831274068   -0.098052727794    0.016207809248
 C   -3.895036030939   -2.299919201845    0.026497135616
 N   -5.266109332708   -2.113588156532    0.026421950900
 C   -5.759632827219   -3.352191170577    0.016091851235
 H   -6.817130740487   -3.606337792409    0.013145206809
 H   -4.899021002967   -5.327185385673    0.001390308410
RB    5.439581534958    4.939215965328   -0.023281364586
