17

 N   -4.835428865663   -4.357977264023    0.010342856802
 C   -3.625240798819   -3.702771060347    0.014304480770
 N   -2.391828384516   -4.301448754809    0.026342765675
 C   -1.421405184460   -3.411272613198    0.014470308702
 N   -1.624482021873   -2.049634479684    0.007635148360
 H   -0.820654896622   -1.429673939929   -0.074352874062
 N   -0.095950430223   -3.829947334878   -0.063876994533
 H    0.558585775109   -3.298144110478    0.503763782197
 H   -0.017145342832   -4.830647478813    0.097706343456
 C   -2.883755764190   -1.363600776153    0.020588935037
 O   -2.911336133295   -0.135427691376    0.016500806609
 C   -3.956540890166   -2.337294165427    0.026790132977
 N   -5.327614191935   -2.150963120114    0.026714948261
 C   -5.821137686446   -3.389566134159    0.016384848596
 H   -6.878635599714   -3.643712755991    0.013438204170
 H   -4.960525862194   -5.364560349255    0.001683305771
RB    5.548992403752    5.005702211914   -0.023802576995
