16

 N   -2.125912644909    0.227802946772   -0.080418255918
 C   -0.893786912642   -0.402487333236   -0.079463295610
 N   -0.623645976516   -1.723372808204   -0.082927484557
 C    0.704483191947   -1.941566700954   -0.067360055894
 H    1.018291474917   -2.988245433444   -0.063980485203
 N    1.716832634988   -1.033585743813   -0.053388785619
 C    1.404615891081    0.277235339436   -0.058035189519
 N    2.412242845883    1.201733976741   -0.099857026450
 H    3.343694383270    0.871203867989    0.122600907683
 H    2.179505339856    2.161704731780    0.124953218990
 C    0.039115050207    0.653929193303   -0.066806277234
 N   -0.584414260984    1.892894893933   -0.056928068216
 C   -1.884339748141    1.584815505572   -0.065382921374
 H   -2.694393276928    2.311396306674   -0.061334783511
 H   -3.029702322079   -0.232454177062   -0.088021311851
LI   -0.626955500029   -1.727721304321    1.317061850272
