16

 N   -2.125900970811    0.227818285768   -0.085356614027
 C   -0.893775238544   -0.402471994240   -0.084401653719
 N   -0.623634302418   -1.723357469208   -0.087865842666
 C    0.704494866045   -1.941551361958   -0.072298414003
 H    1.018303149015   -2.988230094448   -0.068918843312
 N    1.716844309086   -1.033570404817   -0.058327143728
 C    1.404627565179    0.277250678432   -0.062973547628
 N    2.412254519981    1.201749315737   -0.104795384559
 H    3.343706057368    0.871219206985    0.117662549574
 H    2.179517013954    2.161720070776    0.120014860881
 C    0.039126724305    0.653944532299   -0.071744635343
 N   -0.584402586886    1.892910232929   -0.061866426325
 C   -1.884328074043    1.584830844568   -0.070321279483
 H   -2.694381602830    2.311411645670   -0.066273141620
 H   -3.029690647981   -0.232438838066   -0.092959669960
LI   -0.627180220468   -1.728016572191    1.412122730365
