16

 N   -2.125865948518    0.227864302757   -0.100171688354
 C   -0.893740216251   -0.402425977251   -0.099216728046
 N   -0.623599280125   -1.723311452219   -0.102680916993
 C    0.704529888338   -1.941505344969   -0.087113488330
 H    1.018338171308   -2.988184077459   -0.083733917639
 N    1.716879331379   -1.033524387828   -0.073142218055
 C    1.404662587472    0.277296695421   -0.077788621955
 N    2.412289542274    1.201795332726   -0.119610458886
 H    3.343741079661    0.871265223974    0.102847475247
 H    2.179552036247    2.161766087765    0.105199786554
 C    0.039161746598    0.653990549288   -0.086559709670
 N   -0.584367564593    1.892956249918   -0.076681500652
 C   -1.884293051750    1.584876861557   -0.085136353810
 H   -2.694346580537    2.311457662659   -0.081088215947
 H   -3.029655625688   -0.232392821077   -0.107774744287
LI   -0.627854381784   -1.728902375799    1.697305370645
