16

 N   -2.125784229834    0.227971675730   -0.134740195115
 C   -0.893658497567   -0.402318604278   -0.133785234807
 N   -0.623517561441   -1.723204079246   -0.137249423754
 C    0.704611607022   -1.941397971996   -0.121681995091
 H    1.018419889992   -2.988076704486   -0.118302424400
 N    1.716961050063   -1.033417014855   -0.107710724816
 C    1.404744306156    0.277404068394   -0.112357128716
 N    2.412371260958    1.201902705699   -0.154178965647
 H    3.343822798345    0.871372596947    0.068278968486
 H    2.179633754931    2.161873460738    0.070631279793
 C    0.039243465282    0.654097922261   -0.121128216431
 N   -0.584285845909    1.893063622891   -0.111250007413
 C   -1.884211333066    1.584984234530   -0.119704860571
 H   -2.694264861853    2.311565035632   -0.115656722708
 H   -3.029573907004   -0.232285448104   -0.142343251048
LI   -0.629427424857   -1.730969250884    2.362731531298
