16

 N   -2.125772555736    0.227987014726   -0.139678553224
 C   -0.893646823469   -0.402303265282   -0.138723592916
 N   -0.623505887343   -1.723188740250   -0.142187781863
 C    0.704623281120   -1.941382633000   -0.126620353200
 H    1.018431564090   -2.988061365490   -0.123240782509
 N    1.716972724161   -1.033401675859   -0.112649082925
 C    1.404755980254    0.277419407390   -0.117295486825
 N    2.412382935056    1.201918044695   -0.159117323756
 H    3.343834472443    0.871387935943    0.063340610377
 H    2.179645429029    2.161888799734    0.065692921684
 C    0.039255139380    0.654113261257   -0.126066574540
 N   -0.584274171811    1.893078961887   -0.116188365522
 C   -1.884199658968    1.584999573526   -0.124643218680
 H   -2.694253187755    2.311580374628   -0.120595080817
 H   -3.029562232906   -0.232270109108   -0.147281609157
LI   -0.629652145296   -1.731264518754    2.457792411391
