16

 N   -2.125749207541    0.228017692719   -0.149555269442
 C   -0.893623475274   -0.402272587289   -0.148600309134
 N   -0.623482539148   -1.723158062257   -0.152064498081
 C    0.704646629315   -1.941351955007   -0.136497069418
 H    1.018454912285   -2.988030687497   -0.133117498727
 N    1.716996072356   -1.033370997866   -0.122525799143
 C    1.404779328449    0.277450085383   -0.127172203043
 N    2.412406283251    1.201948722688   -0.168994039974
 H    3.343857820638    0.871418613936    0.053463894159
 H    2.179668777224    2.161919477727    0.055816205466
 C    0.039278487575    0.654143939250   -0.135943290758
 N   -0.584250823616    1.893109639880   -0.126065081740
 C   -1.884176310773    1.585030251519   -0.134519934898
 H   -2.694229839560    2.311611052621   -0.130471797035
 H   -3.029538884711   -0.232239431115   -0.157158325375
LI   -0.630101586174   -1.731855054492    2.647914171578
