16

 N   -2.125737533443    0.228033031715   -0.154493627551
 C   -0.893611801176   -0.402257248293   -0.153538667243
 N   -0.623470865050   -1.723142723261   -0.157002856190
 C    0.704658303413   -1.941336616011   -0.141435427527
 H    1.018466586383   -2.988015348501   -0.138055856836
 N    1.717007746454   -1.033355658870   -0.127464157252
 C    1.404791002547    0.277465424379   -0.132110561152
 N    2.412417957349    1.201964061684   -0.173932398083
 H    3.343869494736    0.871433952932    0.048525536050
 H    2.179680451322    2.161934816723    0.050877847357
 C    0.039290161673    0.654159278246   -0.140881648867
 N   -0.584239149518    1.893124978876   -0.131003439849
 C   -1.884164636675    1.585045590515   -0.139458293007
 H   -2.694218165462    2.311626391617   -0.135410155144
 H   -3.029527210613   -0.232224092119   -0.162096683484
LI   -0.630326306613   -1.732150322362    2.742975051671
