16

 N   -2.125725859345    0.228048370711   -0.159431985659
 C   -0.893600127078   -0.402241909297   -0.158477025351
 N   -0.623459190952   -1.723127384265   -0.161941214298
 C    0.704669977511   -1.941321277015   -0.146373785635
 H    1.018478260481   -2.988000009505   -0.142994214944
 N    1.717019420552   -1.033340319874   -0.132402515360
 C    1.404802676645    0.277480763375   -0.137048919260
 N    2.412429631447    1.201979400680   -0.178870756191
 H    3.343881168834    0.871449291928    0.043587177942
 H    2.179692125420    2.161950155719    0.045939489249
 C    0.039301835771    0.654174617242   -0.145820006975
 N   -0.584227475420    1.893140317872   -0.135941797957
 C   -1.884152962577    1.585060929511   -0.144396651115
 H   -2.694206491364    2.311641730613   -0.140348513252
 H   -3.029515536515   -0.232208753123   -0.167035041592
LI   -0.630551027052   -1.732445590231    2.838035931764
