16

 N   -2.125714185248    0.228063709707   -0.164370343768
 C   -0.893588452981   -0.402226570301   -0.163415383460
 N   -0.623447516855   -1.723112045269   -0.166879572407
 C    0.704681651608   -1.941305938019   -0.151312143744
 H    1.018489934578   -2.987984670509   -0.147932573053
 N    1.717031094649   -1.033324980878   -0.137340873469
 C    1.404814350742    0.277496102371   -0.141987277369
 N    2.412441305544    1.201994739676   -0.183809114300
 H    3.343892842931    0.871464630924    0.038648819833
 H    2.179703799517    2.161965494715    0.041001131140
 C    0.039313509868    0.654189956238   -0.150758365084
 N   -0.584215801323    1.893155656868   -0.140880156066
 C   -1.884141288480    1.585076268507   -0.149335009224
 H   -2.694194817267    2.311657069609   -0.145286871361
 H   -3.029503862418   -0.232193414127   -0.171973399701
LI   -0.630775747491   -1.732740858100    2.933096811857
