16

 N   -2.125702511150    0.228079048703   -0.169308701877
 C   -0.893576778883   -0.402211231305   -0.168353741569
 N   -0.623435842757   -1.723096706273   -0.171817930516
 C    0.704693325706   -1.941290599023   -0.156250501853
 H    1.018501608676   -2.987969331513   -0.152870931162
 N    1.717042768747   -1.033309641882   -0.142279231578
 C    1.404826024840    0.277511441367   -0.146925635478
 N    2.412452979642    1.202010078672   -0.188747472409
 H    3.343904517029    0.871479969920    0.033710461724
 H    2.179715473615    2.161980833711    0.036062773031
 C    0.039325183966    0.654205295234   -0.155696723193
 N   -0.584204127225    1.893170995864   -0.145818514175
 C   -1.884129614382    1.585091607503   -0.154273367333
 H   -2.694183143169    2.311672408605   -0.150225229470
 H   -3.029492188320   -0.232178075131   -0.176911757810
LI   -0.631000467930   -1.733036125970    3.028157691951
