16

 N   -2.125690837052    0.228094387700   -0.174247059986
 C   -0.893565104785   -0.402195892308   -0.173292099678
 N   -0.623424168659   -1.723081367276   -0.176756288625
 C    0.704704999804   -1.941275260026   -0.161188859962
 H    1.018513282774   -2.987953992516   -0.157809289271
 N    1.717054442845   -1.033294302885   -0.147217589687
 C    1.404837698938    0.277526780364   -0.151863993587
 N    2.412464653740    1.202025417669   -0.193685830518
 H    3.343916191127    0.871495308917    0.028772103615
 H    2.179727147713    2.161996172708    0.031124414922
 C    0.039336858064    0.654220634231   -0.160635081302
 N   -0.584192453127    1.893186334861   -0.150756872284
 C   -1.884117940284    1.585106946500   -0.159211725442
 H   -2.694171469071    2.311687747602   -0.155163587579
 H   -3.029480514222   -0.232162736134   -0.181850115919
LI   -0.631225188368   -1.733331393839    3.123218572044
