16

 N   -2.125667488857    0.228125065692   -0.184123776204
 C   -0.893541756590   -0.402165214316   -0.183168815896
 N   -0.623400820464   -1.723050689284   -0.186633004843
 C    0.704728347999   -1.941244582034   -0.171065576180
 H    1.018536630969   -2.987923314524   -0.167686005489
 N    1.717077791040   -1.033263624893   -0.157094305905
 C    1.404861047133    0.277557458356   -0.161740709805
 N    2.412488001935    1.202056095661   -0.203562546736
 H    3.343939539322    0.871525986909    0.018895387397
 H    2.179750495908    2.162026850700    0.021247698704
 C    0.039360206259    0.654251312223   -0.170511797520
 N   -0.584169104932    1.893217012853   -0.160633588502
 C   -1.884094592089    1.585137624492   -0.169088441660
 H   -2.694148120876    2.311718425594   -0.165040303797
 H   -3.029457166027   -0.232132058142   -0.191726832137
LI   -0.631674629246   -1.733921929578    3.313340332231
