16

 N   -2.125655814759    0.228140404688   -0.189062134312
 C   -0.893530082492   -0.402149875320   -0.188107174004
 N   -0.623389146366   -1.723035350288   -0.191571362951
 C    0.704740022097   -1.941229243038   -0.176003934288
 H    1.018548305067   -2.987907975528   -0.172624363597
 N    1.717089465138   -1.033248285897   -0.162032664013
 C    1.404872721231    0.277572797352   -0.166679067913
 N    2.412499676033    1.202071434657   -0.208500904844
 H    3.343951213420    0.871541325905    0.013957029289
 H    2.179762170006    2.162042189696    0.016309340596
 C    0.039371880357    0.654266651219   -0.175450155628
 N   -0.584157430834    1.893232351849   -0.165571946610
 C   -1.884082917991    1.585152963488   -0.174026799768
 H   -2.694136446778    2.311733764590   -0.169978661905
 H   -3.029445491929   -0.232116719146   -0.196665190245
LI   -0.631899349685   -1.734217197447    3.408401212324
