16

 N   -2.125574096075    0.228247777661   -0.223630641074
 C   -0.893448363808   -0.402042502347   -0.222675680766
 N   -0.623307427682   -1.722927977315   -0.226139869713
 C    0.704821740781   -1.941121870065   -0.210572441050
 H    1.018630023751   -2.987800602555   -0.207192870359
 N    1.717171183822   -1.033140912924   -0.196601170775
 C    1.404954439915    0.277680170325   -0.201247574675
 N    2.412581394717    1.202178807630   -0.243069411606
 H    3.344032932104    0.871648698878   -0.020611477473
 H    2.179843888690    2.162149562669   -0.018259166166
 C    0.039453599041    0.654374024192   -0.210018662390
 N   -0.584075712150    1.893339724822   -0.200140453372
 C   -1.884001199307    1.585260336461   -0.208595306530
 H   -2.694054728094    2.311841137563   -0.204547168667
 H   -3.029363773245   -0.232009346173   -0.231233697007
LI   -0.633472392758   -1.736284072533    4.073827372977
