16

 N   -2.125539073782    0.228293794650   -0.238445715401
 C   -0.893413341515   -0.401996485358   -0.237490755093
 N   -0.623272405389   -1.722881960326   -0.240954944040
 C    0.704856763074   -1.941075853076   -0.225387515377
 H    1.018665046044   -2.987754585566   -0.222007944686
 N    1.717206206115   -1.033094895935   -0.211416245102
 C    1.404989462208    0.277726187314   -0.216062649002
 N    2.412616417010    1.202224824619   -0.257884485933
 H    3.344067954397    0.871694715867   -0.035426551800
 H    2.179878910983    2.162195579658   -0.033074240493
 C    0.039488621334    0.654420041181   -0.224833736717
 N   -0.584040689857    1.893385741811   -0.214955527699
 C   -1.883966177014    1.585306353450   -0.223410380857
 H   -2.694019705801    2.311887154552   -0.219362242994
 H   -3.029328750952   -0.231963329184   -0.246048771334
LI   -0.634146554075   -1.737169876141    4.359010013257
