16

 N   -2.125515725587    0.228324472642   -0.248322431618
 C   -0.893389993320   -0.401965807366   -0.247367471310
 N   -0.623249057194   -1.722851282334   -0.250831660257
 C    0.704880111269   -1.941045175084   -0.235264231594
 H    1.018688394239   -2.987723907574   -0.231884660903
 N    1.717229554310   -1.033064217943   -0.221292961319
 C    1.405012810403    0.277756865306   -0.225939365219
 N    2.412639765205    1.202255502611   -0.267761202150
 H    3.344091302592    0.871725393859   -0.045303268017
 H    2.179902259178    2.162226257650   -0.042950956710
 C    0.039511969529    0.654450719173   -0.234710452934
 N   -0.584017341662    1.893416419803   -0.224832243916
 C   -1.883942828819    1.585337031442   -0.233287097074
 H   -2.693996357606    2.311917832544   -0.229238959211
 H   -3.029305402757   -0.231932651192   -0.255925487551
LI   -0.634595994953   -1.737760411879    4.549131773443
