16

 N   -2.125492377391    0.228355150635   -0.258199147836
 C   -0.893366645124   -0.401935129373   -0.257244187528
 N   -0.623225708998   -1.722820604341   -0.260708376475
 C    0.704903459465   -1.941014497091   -0.245140947812
 H    1.018711742435   -2.987693229581   -0.241761377121
 N    1.717252902506   -1.033033539950   -0.231169677537
 C    1.405036158599    0.277787543299   -0.235816081437
 N    2.412663113401    1.202286180604   -0.277637918368
 H    3.344114650788    0.871756071852   -0.055179984235
 H    2.179925607374    2.162256935643   -0.052827672928
 C    0.039535317725    0.654481397166   -0.244587169152
 N   -0.583993993466    1.893447097796   -0.234708960134
 C   -1.883919480623    1.585367709435   -0.243163813292
 H   -2.693973009410    2.311948510537   -0.239115675429
 H   -3.029282054561   -0.231901973199   -0.265802203769
LI   -0.635045435830   -1.738350947618    4.739253533630
