16

 N   -2.125457355098    0.228401167623   -0.273014222162
 C   -0.893331622831   -0.401889112385   -0.272059261854
 N   -0.623190686705   -1.722774587353   -0.275523450801
 C    0.704938481758   -1.940968480103   -0.259956022138
 H    1.018746764728   -2.987647212593   -0.256576451447
 N    1.717287924799   -1.032987522962   -0.245984751863
 C    1.405071180892    0.277833560287   -0.250631155763
 N    2.412698135694    1.202332197592   -0.292452992694
 H    3.344149673081    0.871802088840   -0.069995058561
 H    2.179960629667    2.162302952631   -0.067642747254
 C    0.039570340018    0.654527414154   -0.259402243478
 N   -0.583958971173    1.893493114784   -0.249524034460
 C   -1.883884458330    1.585413726423   -0.257978887618
 H   -2.693937987117    2.311994527525   -0.253930749755
 H   -3.029247032268   -0.231855956211   -0.280617278095
LI   -0.635719597147   -1.739236751226    5.024436173909
