16

 N   -2.125445681001    0.228416506619   -0.277952580271
 C   -0.893319948734   -0.401873773389   -0.276997619963
 N   -0.623179012608   -1.722759248357   -0.280461808910
 C    0.704950155855   -1.940953141107   -0.264894380247
 H    1.018758438825   -2.987631873597   -0.261514809556
 N    1.717299598896   -1.032972183966   -0.250923109972
 C    1.405082854989    0.277848899283   -0.255569513872
 N    2.412709809791    1.202347536588   -0.297391350803
 H    3.344161347178    0.871817427836   -0.074933416670
 H    2.179972303764    2.162318291627   -0.072581105363
 C    0.039582014115    0.654542753150   -0.264340601587
 N   -0.583947297076    1.893508453780   -0.254462392569
 C   -1.883872784233    1.585429065419   -0.262917245727
 H   -2.693926313020    2.312009866521   -0.258869107864
 H   -3.029235358171   -0.231840617215   -0.285555636204
LI   -0.635944317586   -1.739532019096    5.119497054003
