16

 N   -2.125410658707    0.228462523608   -0.292767654597
 C   -0.893284926440   -0.401827756400   -0.291812694289
 N   -0.623143990314   -1.722713231368   -0.295276883236
 C    0.704985178149   -1.940907124118   -0.279709454573
 H    1.018793461119   -2.987585856608   -0.276329883882
 N    1.717334621190   -1.032926166977   -0.265738184298
 C    1.405117877283    0.277894916272   -0.270384588198
 N    2.412744832085    1.202393553577   -0.312206425129
 H    3.344196369472    0.871863444825   -0.089748490996
 H    2.180007326058    2.162364308616   -0.087396179689
 C    0.039617036409    0.654588770139   -0.279155675913
 N   -0.583912274782    1.893554470769   -0.269277466895
 C   -1.883837761939    1.585475082408   -0.277732320053
 H   -2.693891290726    2.312055883510   -0.273684182190
 H   -3.029200335877   -0.231794600226   -0.300370710530
LI   -0.636618478903   -1.740417822704    5.404679694283
