16

 N   -2.125398984610    0.228477862604   -0.297706012706
 C   -0.893273252343   -0.401812417404   -0.296751052398
 N   -0.623132316217   -1.722697892372   -0.300215241345
 C    0.704996852246   -1.940891785122   -0.284647812682
 H    1.018805135216   -2.987570517612   -0.281268241991
 N    1.717346295287   -1.032910827981   -0.270676542407
 C    1.405129551380    0.277910255268   -0.275322946307
 N    2.412756506182    1.202408892573   -0.317144783238
 H    3.344208043569    0.871878783821   -0.094686849105
 H    2.180019000155    2.162379647612   -0.092334537798
 C    0.039628710506    0.654604109135   -0.284094034022
 N   -0.583900600685    1.893569809765   -0.274215825004
 C   -1.883826087842    1.585490421404   -0.282670678162
 H   -2.693879616629    2.312071222506   -0.278622540299
 H   -3.029188661780   -0.231779261230   -0.305309068639
LI   -0.636843199342   -1.740713090573    5.499740574376
