16

 N   -2.125387310512    0.228493201600   -0.302644370815
 C   -0.893261578245   -0.401797078408   -0.301689410507
 N   -0.623120642119   -1.722682553376   -0.305153599454
 C    0.705008526344   -1.940876446126   -0.289586170791
 H    1.018816809314   -2.987555178616   -0.286206600100
 N    1.717357969385   -1.032895488985   -0.275614900516
 C    1.405141225478    0.277925594264   -0.280261304416
 N    2.412768180280    1.202424231569   -0.322083141347
 H    3.344219717667    0.871894122817   -0.099625207214
 H    2.180030674253    2.162394986608   -0.097272895907
 C    0.039640384604    0.654619448131   -0.289032392131
 N   -0.583888926587    1.893585148761   -0.279154183113
 C   -1.883814413744    1.585505760400   -0.287609036271
 H   -2.693867942531    2.312086561502   -0.283560898408
 H   -3.029176987682   -0.231763922234   -0.310247426748
LI   -0.637067919781   -1.741008358442    5.594801454469
