16

 N   -2.125375636414    0.228508540596   -0.307582728924
 C   -0.893249904147   -0.401781739412   -0.306627768616
 N   -0.623108968021   -1.722667214380   -0.310091957563
 C    0.705020200442   -1.940861107130   -0.294524528900
 H    1.018828483412   -2.987539839620   -0.291144958209
 N    1.717369643483   -1.032880149989   -0.280553258625
 C    1.405152899576    0.277940933260   -0.285199662525
 N    2.412779854378    1.202439570565   -0.327021499456
 H    3.344231391765    0.871909461813   -0.104563565323
 H    2.180042348351    2.162410325604   -0.102211254016
 C    0.039652058702    0.654634787127   -0.293970750240
 N   -0.583877252489    1.893600487757   -0.284092541222
 C   -1.883802739646    1.585521099396   -0.292547394380
 H   -2.693856268433    2.312101900498   -0.288499256517
 H   -3.029165313584   -0.231748583238   -0.315185784857
LI   -0.637292640220   -1.741303626312    5.689862334562
