16

 N   -2.125317265926    0.228585235577   -0.332274519468
 C   -0.893191533659   -0.401705044431   -0.331319559160
 N   -0.623050597533   -1.722590519399   -0.334783748107
 C    0.705078570930   -1.940784412149   -0.319216319444
 H    1.018886853900   -2.987463144639   -0.315836748753
 N    1.717428013971   -1.032803455008   -0.305245049169
 C    1.405211270064    0.278017628241   -0.309891453069
 N    2.412838224866    1.202516265546   -0.351713290000
 H    3.344289762253    0.871986156794   -0.129255355867
 H    2.180100718839    2.162487020585   -0.126903044560
 C    0.039710429190    0.654711482108   -0.318662540784
 N   -0.583818882001    1.893677182738   -0.308784331766
 C   -1.883744369158    1.585597794377   -0.317239184924
 H   -2.693797897945    2.312178595479   -0.313191047061
 H   -3.029106943096   -0.231671888257   -0.339877575401
LI   -0.638416242415   -1.742779965658    6.165166735029
