16

 N   -2.125282243633    0.228631252566   -0.347089593794
 C   -0.893156511366   -0.401659027442   -0.346134633486
 N   -0.623015575240   -1.722544502410   -0.349598822433
 C    0.705113593223   -1.940738395160   -0.334031393770
 H    1.018921876193   -2.987417127650   -0.330651823079
 N    1.717463036264   -1.032757438019   -0.320060123495
 C    1.405246292357    0.278063645230   -0.324706527395
 N    2.412873247159    1.202562282535   -0.366528364326
 H    3.344324784546    0.872032173783   -0.144070430193
 H    2.180135741132    2.162533037574   -0.141718118886
 C    0.039745451483    0.654757499097   -0.333477615110
 N   -0.583783859708    1.893723199727   -0.323599406092
 C   -1.883709346865    1.585643811366   -0.332054259250
 H   -2.693762875652    2.312224612468   -0.328006121387
 H   -3.029071920803   -0.231625871268   -0.354692649727
LI   -0.639090403731   -1.743665769267    6.450349375309
