16

 N   -2.125258895437    0.228661930558   -0.356966310012
 C   -0.893133163170   -0.401628349450   -0.356011349704
 N   -0.622992227044   -1.722513824418   -0.359475538651
 C    0.705136941419   -1.940707717168   -0.343908109988
 H    1.018945224389   -2.987386449658   -0.340528539297
 N    1.717486384460   -1.032726760027   -0.329936839713
 C    1.405269640553    0.278094323222   -0.334583243613
 N    2.412896595355    1.202592960527   -0.376405080544
 H    3.344348132742    0.872062851775   -0.153947146411
 H    2.180159089328    2.162563715566   -0.151594835104
 C    0.039768799679    0.654788177089   -0.343354331328
 N   -0.583760511512    1.893753877719   -0.333476122310
 C   -1.883685998669    1.585674489358   -0.341930975468
 H   -2.693739527456    2.312255290460   -0.337882837605
 H   -3.029048572607   -0.231595193276   -0.364569365945
LI   -0.639539844609   -1.744256305005    6.640471135495
