16

 N   -2.125235547242    0.228692608551   -0.366843026230
 C   -0.893109814975   -0.401597671457   -0.365888065922
 N   -0.622968878849   -1.722483146425   -0.369352254869
 C    0.705160289614   -1.940677039175   -0.353784826206
 H    1.018968572584   -2.987355771665   -0.350405255515
 N    1.717509732655   -1.032696082034   -0.339813555931
 C    1.405292988748    0.278125001215   -0.344459959831
 N    2.412919943550    1.202623638520   -0.386281796762
 H    3.344371480937    0.872093529768   -0.163823862629
 H    2.180182437523    2.162594393559   -0.161471551322
 C    0.039792147874    0.654818855082   -0.353231047546
 N   -0.583737163317    1.893784555712   -0.343352838528
 C   -1.883662650474    1.585705167351   -0.351807691686
 H   -2.693716179261    2.312285968453   -0.347759553823
 H   -3.029025224412   -0.231564515283   -0.374446082163
LI   -0.639989285487   -1.744846840744    6.830592895682
