16

 N   -2.125223873144    0.228707947547   -0.371781384339
 C   -0.893098140877   -0.401582332461   -0.370826424031
 N   -0.622957204751   -1.722467807429   -0.374290612978
 C    0.705171963712   -1.940661700179   -0.358723184315
 H    1.018980246682   -2.987340432669   -0.355343613624
 N    1.717521406753   -1.032680743038   -0.344751914040
 C    1.405304662846    0.278140340211   -0.349398317940
 N    2.412931617648    1.202638977516   -0.391220154871
 H    3.344383155035    0.872108868764   -0.168762220738
 H    2.180194111621    2.162609732555   -0.166409909431
 C    0.039803821972    0.654834194078   -0.358169405655
 N   -0.583725489219    1.893799894708   -0.348291196637
 C   -1.883650976376    1.585720506347   -0.356746049795
 H   -2.693704505163    2.312301307449   -0.352697911932
 H   -3.029013550314   -0.231549176287   -0.379384440272
LI   -0.640214005926   -1.745142108613    6.925653775775
