16

 N   -2.125188850851    0.228753964535   -0.386596458665
 C   -0.893063118584   -0.401536315473   -0.385641498357
 N   -0.622922182458   -1.722421790441   -0.389105687304
 C    0.705206986005   -1.940615683191   -0.373538258641
 H    1.019015268975   -2.987294415681   -0.370158687950
 N    1.717556429046   -1.032634726050   -0.359566988366
 C    1.405339685139    0.278186357199   -0.364213392266
 N    2.412966639941    1.202684994504   -0.406035229197
 H    3.344418177328    0.872154885752   -0.183577295064
 H    2.180229133914    2.162655749543   -0.181224983757
 C    0.039838844265    0.654880211066   -0.372984479981
 N   -0.583690466926    1.893845911696   -0.363106270963
 C   -1.883615954083    1.585766523335   -0.371561124121
 H   -2.693669482870    2.312347324437   -0.367512986258
 H   -3.028978528021   -0.231503159299   -0.394199514598
LI   -0.640888167243   -1.746027912221    7.210836416055
