16

 N   -2.125177176753    0.228769303532   -0.391534816774
 C   -0.893051444486   -0.401520976476   -0.390579856466
 N   -0.622910508360   -1.722406451444   -0.394044045413
 C    0.705218660103   -1.940600344194   -0.378476616750
 H    1.019026943073   -2.987279076684   -0.375097046059
 N    1.717568103144   -1.032619387053   -0.364505346475
 C    1.405351359237    0.278201696196   -0.369151750375
 N    2.412978314039    1.202700333501   -0.410973587306
 H    3.344429851426    0.872170224749   -0.188515653173
 H    2.180240808012    2.162671088540   -0.186163341866
 C    0.039850518363    0.654895550063   -0.377922838090
 N   -0.583678792828    1.893861250693   -0.368044629072
 C   -1.883604279985    1.585781862332   -0.376499482230
 H   -2.693657808772    2.312362663434   -0.372451344367
 H   -3.028966853923   -0.231487820302   -0.399137872707
LI   -0.641112887682   -1.746323180091    7.305897296148
