16

 N   -2.125153828558    0.228799981524   -0.401411532991
 C   -0.893028096291   -0.401490298484   -0.400456572683
 N   -0.622887160165   -1.722375773452   -0.403920761630
 C    0.705242008298   -1.940569666202   -0.388353332967
 H    1.019050291268   -2.987248398692   -0.384973762276
 N    1.717591451339   -1.032588709061   -0.374382062692
 C    1.405374707432    0.278232374188   -0.379028466592
 N    2.413001662234    1.202731011493   -0.420850303523
 H    3.344453199621    0.872200902741   -0.198392369390
 H    2.180264156207    2.162701766532   -0.196040058083
 C    0.039873866558    0.654926228055   -0.387799554307
 N   -0.583655444633    1.893891928685   -0.377921345289
 C   -1.883580931790    1.585812540324   -0.386376198447
 H   -2.693634460577    2.312393341426   -0.382328060584
 H   -3.028943505728   -0.231457142310   -0.409014588924
LI   -0.641562328560   -1.746913715829    7.496019056335
