16

 N   -2.125142154460    0.228815320520   -0.406349891100
 C   -0.893016422193   -0.401474959488   -0.405394930792
 N   -0.622875486067   -1.722360434456   -0.408859119739
 C    0.705253682396   -1.940554327206   -0.393291691076
 H    1.019061965366   -2.987233059696   -0.389912120385
 N    1.717603125437   -1.032573370065   -0.379320420801
 C    1.405386381530    0.278247713184   -0.383966824701
 N    2.413013336332    1.202746350489   -0.425788661632
 H    3.344464873719    0.872216241737   -0.203330727499
 H    2.180275830305    2.162717105528   -0.200978416192
 C    0.039885540656    0.654941567051   -0.392737912416
 N   -0.583643770535    1.893907267681   -0.382859703398
 C   -1.883569257692    1.585827879320   -0.391314556556
 H   -2.693622786479    2.312408680422   -0.387266418693
 H   -3.028931831630   -0.231441803314   -0.413952947033
LI   -0.641787048999   -1.747208983699    7.591079936428
