16

 N   -2.125095458069    0.228876676505   -0.426103323536
 C   -0.892969725802   -0.401413603503   -0.425148363228
 N   -0.622828789676   -1.722299078471   -0.428612552175
 C    0.705300378787   -1.940492971221   -0.413045123512
 H    1.019108661757   -2.987171703711   -0.409665552821
 N    1.717649821828   -1.032512014080   -0.399073853237
 C    1.405433077921    0.278309069169   -0.403720257137
 N    2.413060032723    1.202807706474   -0.445542094068
 H    3.344511570110    0.872277597722   -0.223084159935
 H    2.180322526696    2.162778461513   -0.220731848628
 C    0.039932237047    0.655002923036   -0.412491344852
 N   -0.583597074144    1.893968623666   -0.402613135834
 C   -1.883522561301    1.585889235305   -0.411067988992
 H   -2.693576090088    2.312470036407   -0.407019851129
 H   -3.028885135239   -0.231380447329   -0.433706379469
LI   -0.642685930754   -1.748390055176    7.971323456801
