16

 N   -2.125083783972    0.228892015501   -0.431041681644
 C   -0.892958051705   -0.401398264507   -0.430086721336
 N   -0.622817115579   -1.722283739475   -0.433550910283
 C    0.705312052884   -1.940477632225   -0.417983481620
 H    1.019120335854   -2.987156364715   -0.414603910929
 N    1.717661495925   -1.032496675084   -0.404012211345
 C    1.405444752018    0.278324408165   -0.408658615245
 N    2.413071706820    1.202823045470   -0.450480452176
 H    3.344523244207    0.872292936718   -0.228022518043
 H    2.180334200793    2.162793800509   -0.225670206736
 C    0.039943911144    0.655018262032   -0.417429702960
 N   -0.583585400047    1.893983962662   -0.407551493942
 C   -1.883510887204    1.585904574301   -0.416006347100
 H   -2.693564415991    2.312485375403   -0.411958209237
 H   -3.028873461142   -0.231365108333   -0.438644737577
LI   -0.642910651193   -1.748685323046    8.066384336894
