16

 N   -2.125025413483    0.228968710482   -0.455733472188
 C   -0.892899681216   -0.401321569526   -0.454778511880
 N   -0.622758745090   -1.722207044494   -0.458242700827
 C    0.705370423373   -1.940400937244   -0.442675272164
 H    1.019178706343   -2.987079669734   -0.439295701473
 N    1.717719866414   -1.032419980103   -0.428704001889
 C    1.405503122507    0.278401103146   -0.433350405789
 N    2.413130077309    1.202899740451   -0.475172242720
 H    3.344581614696    0.872369631699   -0.252714308587
 H    2.180392571282    2.162870495490   -0.250361997280
 C    0.040002281633    0.655094957013   -0.442121493504
 N   -0.583527029558    1.894060657643   -0.432243284486
 C   -1.883452516715    1.585981269282   -0.440698137644
 H   -2.693506045502    2.312562070384   -0.436649999781
 H   -3.028815090653   -0.231288413352   -0.463336528121
LI   -0.644034253388   -1.750161662392    8.541688737361
