16

 N   -2.125013739386    0.228984049478   -0.460671830297
 C   -0.892888007119   -0.401306230530   -0.459716869989
 N   -0.622747070993   -1.722191705498   -0.463181058936
 C    0.705382097470   -1.940385598248   -0.447613630273
 H    1.019190380440   -2.987064330738   -0.444234059582
 N    1.717731540511   -1.032404641107   -0.433642359998
 C    1.405514796604    0.278416442142   -0.438288763898
 N    2.413141751406    1.202915079447   -0.480110600829
 H    3.344593288793    0.872384970695   -0.257652666696
 H    2.180404245379    2.162885834486   -0.255300355389
 C    0.040013955730    0.655110296009   -0.447059851613
 N   -0.583515355461    1.894075996639   -0.437181642595
 C   -1.883440842618    1.585996608278   -0.445636495753
 H   -2.693494371405    2.312577409380   -0.441588357890
 H   -3.028803416556   -0.231273074356   -0.468274886230
LI   -0.644258973827   -1.750456930262    8.636749617454
