12

 H    0.116508438104    2.211104754744    2.822749548861
 H    0.128178438104    0.432544754744    3.005149548861
 H   -1.417961561896    1.330124754744    3.034779548861
 C   -0.419671561896    1.284114754744    2.579059548861
 S   -0.592001561896    1.143204754744    0.751369548861
LI   -0.975371561896   -0.976465245256   -0.033020451139
LI    1.275468438104    0.396954754744   -0.347860451139
 S    0.547200741365   -1.056689231485   -0.694506229368
 C    0.374869781576   -1.197598503588   -2.522199873646
 H   -0.161314621963   -2.124593800369   -2.765886143359
 H   -0.172995180257   -0.346030646489   -2.948291629904
 H    1.373152097463   -1.243608623779   -2.977928092134
