12

 H    0.099230291535    2.244470286590    2.844678975745
 H    0.110900291535    0.465910286590    3.027078975745
 H   -1.435239708465    1.363490286590    3.056708975745
 C   -0.436949708465    1.317480286590    2.600988975745
 S   -0.609279708465    1.176570286590    0.773298975745
LI   -0.992649708465   -0.943099713410   -0.011091024255
LI    1.258190291535    0.430320286590   -0.325931024255
 S    0.569637825123   -1.100017098262   -0.722983380306
 C    0.397306865334   -1.240926370365   -2.550677024584
 H   -0.138877538205   -2.167921667146   -2.794363294298
 H   -0.150558096499   -0.389358513266   -2.976768780842
 H    1.395589181221   -1.286936490556   -3.006405243073
