12

 H    0.081952144967    2.277835818436    2.866608402629
 H    0.093622144967    0.499275818436    3.049008402629
 H   -1.452517855033    1.396855818436    3.078638402629
 C   -0.454227855033    1.350845818436    2.622918402629
 S   -0.626557855033    1.209935818436    0.795228402629
LI   -1.009927855033   -0.909734181564    0.010838402629
LI    1.240912144967    0.463685818436   -0.304001597371
 S    0.592074908881   -1.143344965039   -0.751460531245
 C    0.419743949092   -1.284254237141   -2.579154175523
 H   -0.116440454448   -2.211249533923   -2.822840445237
 H   -0.128121012742   -0.432686380042   -3.005245931781
 H    1.418026264979   -1.330264357332   -3.034882394011
