12

 H    0.012839558694    2.411297945821    2.954326110166
 H    0.024509558694    0.632737945821    3.136726110166
 H   -1.521630441306    1.530317945821    3.166356110166
 C   -0.523340441306    1.484307945821    2.710636110166
 S   -0.695670441306    1.343397945821    0.882946110166
LI   -1.079040441306   -0.776272054179    0.098556110166
LI    1.171799558694    0.597147945821   -0.216283889834
 S    0.681823243912   -1.316656432145   -0.865369134999
 C    0.509492284123   -1.457565704248   -2.693062779277
 H   -0.026692119416   -2.384561001029   -2.936749048991
 H   -0.038372677710   -0.605997847149   -3.119154535535
 H    1.507774600010   -1.503575824439   -3.148790997766
