12

 H   -0.004438587874    2.444663477667    2.976255537051
 H    0.007231412126    0.666103477667    3.158655537051
 H   -1.538908587874    1.563683477667    3.188285537051
 C   -0.540618587874    1.517673477667    2.732565537051
 S   -0.712948587874    1.376763477667    0.904875537051
LI   -1.096318587874   -0.742906522333    0.120485537051
LI    1.154521412126    0.630513477667   -0.194354462949
 S    0.704260327670   -1.359984298922   -0.893846285938
 C    0.531929367881   -1.500893571025   -2.721539930216
 H   -0.004255035658   -2.427888867806   -2.965226199930
 H   -0.015935593952   -0.649325713926   -3.147631686474
 H    1.530211683768   -1.546903691216   -3.177268148704
