12

 H   -0.038994881011    2.511394541360    3.020114390819
 H   -0.027324881011    0.732834541360    3.202514390819
 H   -1.573464881011    1.630414541360    3.232144390819
 C   -0.575174881011    1.584404541360    2.776424390819
 S   -0.747504881011    1.443494541360    0.948734390819
LI   -1.130874881011   -0.676175458640    0.164344390819
LI    1.119965118989    0.697244541360   -0.150495609181
 S    0.749134495186   -1.446640032476   -0.950800587815
 C    0.576803535396   -1.587549304578   -2.778494232093
 H    0.040619131857   -2.514544601359   -3.022180501807
 H    0.028938573563   -0.735981447479   -3.204585988351
 H    1.575085851284   -1.633559424769   -3.234222450582
