12

 H   -0.073551174147    2.578125605052    3.063973244588
 H   -0.061881174147    0.799565605052    3.246373244588
 H   -1.608021174147    1.697145605052    3.276003244588
 C   -0.609731174147    1.651135605052    2.820283244588
 S   -0.782061174147    1.510225605052    0.992593244588
LI   -1.165431174147   -0.609444394948    0.208203244588
LI    1.085408825853    0.763975605052   -0.106636755412
 S    0.794008662701   -1.533295766029   -1.007754889692
 C    0.621677702912   -1.674205038132   -2.835448533970
 H    0.085493299373   -2.601200334913   -3.079134803684
 H    0.073812741079   -0.822637181032   -3.261540290228
 H    1.619960018799   -1.720215158322   -3.291176752459
