12

 H   -0.194498200125    2.811684327975    3.217479232778
 H   -0.182828200125    1.033124327975    3.399879232778
 H   -1.728968200125    1.930704327975    3.429509232778
 C   -0.730678200125    1.884694327975    2.973789232778
 S   -0.903008200125    1.743784327975    1.146099232778
LI   -1.286378200125   -0.375885672025    0.361709232778
LI    0.964461799875    0.997534327975    0.046869232778
 S    0.951068249006   -1.836590833466   -1.207094946262
 C    0.778737289217   -1.977500105569   -3.034788590540
 H    0.242552885678   -2.904495402350   -3.278474860254
 H    0.230872327384   -1.125932248469   -3.460880346798
 H    1.777019605104   -2.023510225759   -3.490516809029
