12

 H   -0.263610786398    2.945146455360    3.305196940315
 H   -0.251940786398    1.166586455360    3.487596940315
 H   -1.798080786398    2.064166455360    3.517226940315
 C   -0.799790786398    2.018156455360    3.061506940315
 S   -0.972120786398    1.877246455360    1.233816940315
LI   -1.355490786398   -0.242423544640    0.449426940315
LI    0.895349213602    1.130996455360    0.134586940315
 S    1.040816584038   -2.009902300573   -1.321003550017
 C    0.868485624249   -2.150811572675   -3.148697194295
 H    0.332301220709   -3.077806869457   -3.392383464008
 H    0.320620662415   -1.299243715576   -3.574788950553
 H    1.866767940136   -2.196821692866   -3.604425412783
