12

 H   -0.280888932967    2.978511987207    3.327126367199
 H   -0.269218932967    1.199951987207    3.509526367199
 H   -1.815358932967    2.097531987207    3.539156367199
 C   -0.817068932967    2.051521987207    3.083436367199
 S   -0.989398932967    1.910611987207    1.255746367199
LI   -1.372768932967   -0.209058012793    0.471356367199
LI    0.878071067033    1.164361987207    0.156516367199
 S    1.063253667795   -2.053230167349   -1.349480700955
 C    0.890922708006   -2.194139439452   -3.177174345233
 H    0.354738304467   -3.121134736233   -3.420860614947
 H    0.343057746173   -1.342571582353   -3.603266101491
 H    1.889205023894   -2.240149559643   -3.632902563722
