12

 H   -0.315445226103    3.045243050899    3.370985220967
 H   -0.303775226103    1.266683050899    3.553385220967
 H   -1.849915226103    2.164263050899    3.583015220967
 C   -0.851625226103    2.118253050899    3.127295220967
 S   -1.023955226103    1.977343050899    1.299605220967
LI   -1.407325226103   -0.142326949101    0.515215220967
LI    0.843514773897    1.231093050899    0.200375220967
 S    1.108127835311   -2.139885900903   -1.406435002832
 C    0.935796875522   -2.280795173005   -3.234128647110
 H    0.399612471983   -3.207790469787   -3.477814916824
 H    0.387931913689   -1.429227315906   -3.660220403368
 H    1.934079191409   -2.326805293196   -3.689856865599
