12

 H   -0.350001519240    3.111974114591    3.414844074736
 H   -0.338331519240    1.333414114591    3.597244074736
 H   -1.884471519240    2.230994114591    3.626874074736
 C   -0.886181519240    2.184984114591    3.171154074736
 S   -1.058511519240    2.044074114591    1.343464074736
LI   -1.441881519240   -0.075595885409    0.559074074736
LI    0.808958480760    1.297824114591    0.244234074736
 S    1.153002002827   -2.226541634456   -1.463389304710
 C    0.980671043038   -2.367450906559   -3.291082948988
 H    0.444486639499   -3.294446203340   -3.534769218701
 H    0.432806081205   -1.515883049460   -3.717174705246
 H    1.978953358925   -2.413461026750   -3.746811167476
