12

 H   -0.419114105513    3.245436241976    3.502561782273
 H   -0.407444105513    1.466876241976    3.684961782273
 H   -1.953584105513    2.364456241976    3.714591782273
 C   -0.955294105513    2.318446241976    3.258871782273
 S   -1.127624105513    2.177536241976    1.431181782273
LI   -1.510994105513    0.057866241976    0.646791782273
LI    0.739845894487    1.431286241976    0.331951782273
 S    1.242750337858   -2.399853101563   -1.577297908464
 C    1.070419378069   -2.540762373666   -3.404991552742
 H    0.534234974530   -3.467757670447   -3.648677822456
 H    0.522554416236   -1.689194516566   -3.831083309000
 H    2.068701693956   -2.586772493856   -3.860719771231
