12

 H   -0.436392252081    3.278801773822    3.524491209157
 H   -0.424722252081    1.500241773822    3.706891209157
 H   -1.970862252081    2.397821773822    3.736521209157
 C   -0.972572252081    2.351811773822    3.280801209157
 S   -1.144902252081    2.210901773822    1.453111209157
LI   -1.528272252081    0.091231773822    0.668721209157
LI    0.722567747919    1.464651773822    0.353881209157
 S    1.265187421616   -2.443180968340   -1.605775059403
 C    1.092856461827   -2.584090240442   -3.433468703680
 H    0.556672058288   -3.511085537223   -3.677154973394
 H    0.544991499994   -1.732522383343   -3.859560459939
 H    2.091138777714   -2.630100360633   -3.889196922169
