12

 H   -0.488226691786    3.378898369361    3.590279489810
 H   -0.476556691786    1.600338369361    3.772679489810
 H   -2.022696691786    2.497918369361    3.802309489810
 C   -1.024406691786    2.451908369361    3.346589489810
 S   -1.196736691786    2.310998369361    1.518899489810
LI   -1.580106691786    0.191328369361    0.734509489810
LI    0.670733308214    1.564748369361    0.419669489810
 S    1.332498672890   -2.573164568670   -1.691206512218
 C    1.160167713101   -2.714073840772   -3.518900156496
 H    0.623983309562   -3.641069137554   -3.762586426210
 H    0.612302751267   -1.862505983673   -3.944991912754
 H    2.158450028988   -2.760083960963   -3.974628374985
