12

 H   -0.557339278059    3.512360496746    3.677997197347
 H   -0.545669278059    1.733800496746    3.860397197347
 H   -2.091809278059    2.631380496746    3.890027197347
 C   -1.093519278059    2.585370496746    3.434307197347
 S   -1.265849278059    2.444460496746    1.606617197347
LI   -1.649219278059    0.324790496746    0.822227197347
LI    0.601620721941    1.698210496746    0.507387197347
 S    1.422247007921   -2.746476035776   -1.805115115973
 C    1.249916048132   -2.887385307879   -3.632808760251
 H    0.713731644593   -3.814380604660   -3.876495029964
 H    0.702051086299   -2.035817450780   -4.058900516509
 H    2.248198364019   -2.933395428070   -4.088536978739
