12

 H   -0.574617424627    3.545726028592    3.699926624231
 H   -0.562947424627    1.767166028592    3.882326624231
 H   -2.109087424627    2.664746028592    3.911956624231
 C   -1.110797424627    2.618736028592    3.456236624231
 S   -1.283127424627    2.477826028592    1.628546624231
LI   -1.666497424627    0.358156028592    0.844156624231
LI    0.584342575373    1.731576028592    0.529316624231
 S    1.444684091679   -2.789803902553   -1.833592266911
 C    1.272353131890   -2.930713174656   -3.661285911189
 H    0.736168728351   -3.857708471437   -3.904972180903
 H    0.724488170057   -2.079145317557   -4.087377667447
 H    2.270635447777   -2.976723294847   -4.117014129678
