12

 H   -0.609173717764    3.612457092284    3.743785478000
 H   -0.597503717764    1.833897092284    3.926185478000
 H   -2.143643717764    2.731477092284    3.955815478000
 C   -1.145353717764    2.685467092284    3.500095478000
 S   -1.317683717764    2.544557092284    1.672405478000
LI   -1.701053717764    0.424887092284    0.888015478000
LI    0.549786282236    1.798307092284    0.573175478000
 S    1.489558259195   -2.876459636106   -1.890546568788
 C    1.317227299406   -3.017368908209   -3.718240213066
 H    0.781042895866   -3.944364204990   -3.961926482780
 H    0.769362337572   -2.165801051110   -4.144331969324
 H    2.315509615293   -3.063379028400   -4.173968431555
