12

 H   -0.678286304037    3.745919219669    3.831503185537
 H   -0.666616304037    1.967359219669    4.013903185537
 H   -2.212756304037    2.864939219669    4.043533185537
 C   -1.214466304037    2.818929219669    3.587813185537
 S   -1.386796304037    2.678019219669    1.760123185537
LI   -1.770166304037    0.558349219669    0.975733185537
LI    0.480673695963    1.931769219669    0.660893185537
 S    1.579306594226   -3.049771103213   -2.004455172543
 C    1.406975634437   -3.190680375316   -3.832148816821
 H    0.870791230898   -4.117675672097   -4.075835086534
 H    0.859110672604   -2.339112518217   -4.258240573079
 H    2.405257950324   -3.236690495507   -4.287877035309
