12

 H   -0.695564450605    3.779284751515    3.853432612421
 H   -0.683894450605    2.000724751515    4.035832612421
 H   -2.230034450605    2.898304751515    4.065462612421
 C   -1.231744450605    2.852294751515    3.609742612421
 S   -1.404074450605    2.711384751515    1.782052612421
LI   -1.787444450605    0.591714751515    0.997662612421
LI    0.463395549395    1.965134751515    0.682822612421
 S    1.601743677984   -3.093098969990   -2.032932323481
 C    1.429412718195   -3.234008242093   -3.860625967759
 H    0.893228314656   -4.161003538874   -4.104312237473
 H    0.881547756362   -2.382440384994   -4.286717724017
 H    2.427695034082   -3.280018362284   -4.316354186248
