12

 H   -0.730120743742    3.846015815208    3.897291466190
 H   -0.718450743742    2.067455815208    4.079691466190
 H   -2.264590743742    2.965035815208    4.109321466190
 C   -1.266300743742    2.919025815208    3.653601466190
 S   -1.438630743742    2.778115815208    1.825911466190
LI   -1.822000743742    0.658445815208    1.041521466190
LI    0.428839256258    2.031865815208    0.726681466190
 S    1.646617845500   -3.179754703543   -2.089886625359
 C    1.474286885710   -3.320663975646   -3.917580269636
 H    0.938102482171   -4.247659272427   -4.161266539350
 H    0.926421923877   -2.469096118547   -4.343672025895
 H    2.472569201598   -3.366674095837   -4.373308488125
