12

 H   -0.764677036878    3.912746878900    3.941150319958
 H   -0.753007036878    2.134186878900    4.123550319958
 H   -2.299147036878    3.031766878900    4.153180319958
 C   -1.300857036878    2.985756878900    3.697460319958
 S   -1.473187036878    2.844846878900    1.869770319958
LI   -1.856557036878    0.725176878900    1.085380319958
LI    0.394282963122    2.098596878900    0.770540319958
 S    1.691492013015   -3.266410437097   -2.146840927236
 C    1.519161053226   -3.407319709199   -3.974534571514
 H    0.982976649687   -4.334315005981   -4.218220841227
 H    0.971296091393   -2.555751852100   -4.400626327772
 H    2.517443369113   -3.453329829390   -4.430262790002
