12

 H   -0.833789623152    4.046209006285    4.028868027495
 H   -0.822119623152    2.267649006285    4.211268027495
 H   -2.368259623152    3.165229006285    4.240898027495
 C   -1.369969623152    3.119219006285    3.785178027495
 S   -1.542299623152    2.978309006285    1.957488027495
LI   -1.925669623152    0.858639006285    1.173098027495
LI    0.325170376848    2.232059006285    0.858258027495
 S    1.781240348047   -3.439721904204   -2.260749530990
 C    1.608909388258   -3.580631176306   -4.088443175268
 H    1.072724984718   -4.507626473087   -4.332129444982
 H    1.061044426424   -2.729063319207   -4.514534931526
 H    2.607191704145   -3.626641296497   -4.544171393757
