12

 H   -0.868345916288    4.112940069978    4.072726881264
 H   -0.856675916288    2.334380069978    4.255126881264
 H   -2.402815916288    3.231960069978    4.284756881264
 C   -1.404525916288    3.185950069978    3.829036881264
 S   -1.576855916288    3.045040069978    2.001346881264
LI   -1.960225916288    0.925370069978    1.216956881264
LI    0.290614083712    2.298790069978    0.902116881264
 S    1.826114515562   -3.526377637757   -2.317703832867
 C    1.653783555773   -3.667286909860   -4.145397477145
 H    1.117599152234   -4.594282206641   -4.389083746859
 H    1.105918593940   -2.815719052761   -4.571489233403
 H    2.652065871660   -3.713297030050   -4.601125695634
