12

 H   -0.954736649129    4.279767729209    4.182374015685
 H   -0.943066649129    2.501207729209    4.364774015685
 H   -2.489206649129    3.398787729209    4.394404015685
 C   -1.490916649129    3.352777729209    3.938684015685
 S   -1.663246649129    3.211867729209    2.110994015685
LI   -2.046616649129    1.092197729209    1.326604015685
LI    0.204223350871    2.465617729209    1.011764015685
 S    1.938299934352   -3.743016971640   -2.460089587560
 C    1.765968974562   -3.883926243743   -4.287783231838
 H    1.229784571023   -4.810921540524   -4.531469501552
 H    1.218104012729   -3.032358386644   -4.713874988096
 H    2.764251290450   -3.929936363934   -4.743511450327
