12

 H   -0.972014795698    4.313133261055    4.204303442569
 H   -0.960344795698    2.534573261055    4.386703442569
 H   -2.506484795698    3.432153261055    4.416333442569
 C   -1.508194795698    3.386143261055    3.960613442569
 S   -1.680524795698    3.245233261055    2.132923442569
LI   -2.063894795698    1.125563261055    1.348533442569
LI    0.186945204302    2.498983261055    1.033693442569
 S    1.960737018109   -3.786344838417   -2.488566738499
 C    1.788406058320   -3.927254110520   -4.316260382777
 H    1.252221654781   -4.854249407301   -4.559946652490
 H    1.240541096487   -3.075686253421   -4.742352139035
 H    2.786688374208   -3.973264230711   -4.771988601265
