12

 H   -1.110239968244    4.580057515824    4.379738857644
 H   -1.098569968244    2.801497515824    4.562138857644
 H   -2.644709968244    3.699077515824    4.591768857644
 C   -1.646419968244    3.653067515824    4.136048857644
 S   -1.818749968244    3.512157515824    2.308358857644
LI   -2.202119968244    1.392487515824    1.523968857644
LI    0.048720031756    2.765907515824    1.209128857644
 S    2.140233688172   -4.132967772631   -2.716383946008
 C    1.967902728383   -4.273877044733   -4.544077590285
 H    1.431718324844   -5.200872341515   -4.787763859999
 H    1.420037766550   -3.422309187634   -4.970169346543
 H    2.966185044270   -4.319887164924   -4.999805808774
