12

 H   -1.127518114812    4.613423047671    4.401668284528
 H   -1.115848114812    2.834863047671    4.584068284528
 H   -2.661988114812    3.732443047671    4.613698284528
 C   -1.663698114812    3.686433047671    4.157978284528
 S   -1.836028114812    3.545523047671    2.330288284528
LI   -2.219398114812    1.425853047671    1.545898284528
LI    0.031441885188    2.799273047671    1.231058284528
 S    2.162670771930   -4.176295639407   -2.744861096946
 C    1.990339812141   -4.317204911510   -4.572554741224
 H    1.454155408602   -5.244200208291   -4.816241010938
 H    1.442474850308   -3.465637054411   -4.998646497482
 H    2.988622128028   -4.363215031701   -5.028282959713
