12

 H   -1.144796261381    4.646788579517    4.423597711412
 H   -1.133126261381    2.868228579517    4.605997711412
 H   -2.679266261381    3.765808579517    4.635627711412
 C   -1.680976261381    3.719798579517    4.179907711412
 S   -1.853306261381    3.578888579517    2.352217711412
LI   -2.236676261381    1.459218579517    1.567827711412
LI    0.014163738619    2.832638579517    1.252987711412
 S    2.185107855688   -4.219623506184   -2.773338247885
 C    2.012776895899   -4.360532778287   -4.601031892163
 H    1.476592492360   -5.287528075068   -4.844718161876
 H    1.464911934066   -3.508964921188   -5.027123648421
 H    3.011059211786   -4.406542898478   -5.056760110651
