12

 H   -1.231186994222    4.813616238748    4.533244845833
 H   -1.219516994222    3.035056238748    4.715644845833
 H   -2.765656994222    3.932636238748    4.745274845833
 C   -1.767366994222    3.886626238748    4.289554845833
 S   -1.939696994222    3.745716238748    2.461864845833
LI   -2.323066994222    1.626046238748    1.677474845833
LI   -0.072226994222    2.999466238748    1.362634845833
 S    2.297293274477   -4.436262840068   -2.915724002578
 C    2.124962314688   -4.577172112170   -4.743417646856
 H    1.588777911149   -5.504167408951   -4.987103916569
 H    1.577097352855   -3.725604255071   -5.169509403114
 H    3.123244630575   -4.623182232361   -5.199145865344
