12

 H   -1.248465140790    4.846981770594    4.555174272718
 H   -1.236795140790    3.068421770594    4.737574272718
 H   -2.782935140790    3.966001770594    4.767204272718
 C   -1.784645140790    3.919991770594    4.311484272718
 S   -1.956975140790    3.779081770594    2.483794272718
LI   -2.340345140790    1.659411770594    1.699404272718
LI   -0.089505140790    3.032831770594    1.384564272718
 S    2.319730358235   -4.479590706844   -2.944201153516
 C    2.147399398446   -4.620499978947   -4.771894797794
 H    1.611214994907   -5.547495275728   -5.015581067508
 H    1.599534436613   -3.768932121848   -5.197986554052
 H    3.145681714333   -4.666510099138   -5.227623016283
