12

 H   -1.265743287358    4.880347302440    4.577103699602
 H   -1.254073287358    3.101787302440    4.759503699602
 H   -2.800213287358    3.999367302440    4.789133699602
 C   -1.801923287358    3.953357302440    4.333413699602
 S   -1.974253287358    3.812447302440    2.505723699602
LI   -2.357623287358    1.692777302440    1.721333699602
LI   -0.106783287358    3.066197302440    1.406493699602
 S    2.342167441993   -4.522918573621   -2.972678304455
 C    2.169836482204   -4.663827845724   -4.800371948733
 H    1.633652078665   -5.590823142505   -5.044058218447
 H    1.621971520371   -3.812259988625   -5.226463704991
 H    3.168118798091   -4.709837965915   -5.256100167221
