12

 H   -1.317577727063    4.980443897979    4.642891980255
 H   -1.305907727063    3.201883897979    4.825291980255
 H   -2.852047727063    4.099463897979    4.854921980255
 C   -1.853757727063    4.053453897979    4.399201980255
 S   -2.026087727063    3.912543897979    2.571511980255
LI   -2.409457727063    1.792873897979    1.787121980255
LI   -0.158617727063    3.166293897979    1.472281980255
 S    2.409478693266   -4.652902173951   -3.058109757271
 C    2.237147733477   -4.793811446054   -4.885803401548
 H    1.700963329938   -5.720806742835   -5.129489671262
 H    1.689282771644   -3.942243588955   -5.311895157807
 H    3.235430049365   -4.839821566245   -5.341531620037
