12

 H   -1.334855873632    5.013809429825    4.664821407139
 H   -1.323185873632    3.235249429825    4.847221407139
 H   -2.869325873632    4.132829429825    4.876851407139
 C   -1.871035873632    4.086819429825    4.421131407139
 S   -2.043365873632    3.945909429825    2.593441407139
LI   -2.426735873632    1.826239429825    1.809051407139
LI   -0.175895873632    3.199659429825    1.494211407139
 S    2.431915777024   -4.696230040728   -3.086586908209
 C    2.259584817235   -4.837139312830   -4.914280552487
 H    1.723400413696   -5.764134609612   -5.157966822201
 H    1.711719855402   -3.985571455731   -5.340372308745
 H    3.257867133122   -4.883149433021   -5.370008770976
