12

 H   -1.403968459905    5.147271557210    4.752539114676
 H   -1.392298459905    3.368711557210    4.934939114676
 H   -2.938438459905    4.266291557210    4.964569114676
 C   -1.940148459905    4.220281557210    4.508849114676
 S   -2.112478459905    4.079371557210    2.681159114676
LI   -2.495848459905    1.959701557210    1.896769114676
LI   -0.245008459905    3.333121557210    1.581929114676
 S    2.521664112056   -4.869541507835   -3.200495511964
 C    2.349333152267   -5.010450779937   -5.028189156241
 H    1.813148748728   -5.937446076718   -5.271875425955
 H    1.801468190433   -4.158882922838   -5.454280912499
 H    3.347615468154   -5.056460900128   -5.483917374730
