9

 C   -1.002629620327   -1.119263983582    0.000000000000
 H   -1.981556620327   -0.627475983582    0.000000000000
 H   -0.895483620327   -1.759072983582    0.888272000000
 H   -0.895483620327   -1.759072983582   -0.888272000000
 C    0.081997379673   -0.073679983582    0.000000000000
 O   -0.079106620327    1.135871016418    0.000000000000
 O    1.324283379673   -0.650687983582    0.000000000000
 H    1.958819379673    0.087875016418    0.000000000000
LI   -1.003564543610    1.517155094343    0.000000000000
