9

 C   -0.963928681338   -1.135225826156    0.000000000000
 H   -1.942855681338   -0.643437826156    0.000000000000
 H   -0.856782681338   -1.775034826156    0.888272000000
 H   -0.856782681338   -1.775034826156   -0.888272000000
 C    0.120698318662   -0.089641826156    0.000000000000
 O   -0.040405681338    1.119909173844    0.000000000000
 O    1.362984318662   -0.666649826156    0.000000000000
 H    1.997520318662    0.071913173844    0.000000000000
LI   -1.334646773934    1.653706882940    0.000000000000
