9

 C   -0.954253446590   -1.139216286799    0.000000000000
 H   -1.933180446590   -0.647428286799    0.000000000000
 H   -0.847107446590   -1.779025286799    0.888272000000
 H   -0.847107446590   -1.779025286799   -0.888272000000
 C    0.130373553410   -0.093632286799    0.000000000000
 O   -0.030730446590    1.115918713201    0.000000000000
 O    1.372659553410   -0.670640286799    0.000000000000
 H    2.007195553410    0.067922713201    0.000000000000
LI   -1.417417331515    1.687844830089    0.000000000000
