9

 C   -0.934902977096   -1.147197208086    0.000000000000
 H   -1.913829977096   -0.655409208086    0.000000000000
 H   -0.827756977096   -1.787006208086    0.888272000000
 H   -0.827756977096   -1.787006208086   -0.888272000000
 C    0.149724022904   -0.101613208086    0.000000000000
 O   -0.011379977096    1.107937791914    0.000000000000
 O    1.392010022904   -0.678621208086    0.000000000000
 H    2.026546022904    0.059941791914    0.000000000000
LI   -1.582958446677    1.756120724387    0.000000000000
