9

 C   -0.915552507601   -1.155178129373    0.000000000000
 H   -1.894479507601   -0.663390129373    0.000000000000
 H   -0.808406507601   -1.794987129373    0.888272000000
 H   -0.808406507601   -1.794987129373   -0.888272000000
 C    0.169074492399   -0.109594129373    0.000000000000
 O    0.007970492399    1.099956870627    0.000000000000
 O    1.411360492399   -0.686602129373    0.000000000000
 H    2.045896492399    0.051960870627    0.000000000000
LI   -1.748499561839    1.824396618685    0.000000000000
