9

 C   -0.131858493066   -1.478405441490    0.000000000000
 H   -1.110785493066   -0.986617441490    0.000000000000
 H   -0.024712493066   -2.118214441490    0.888272000000
 H   -0.024712493066   -2.118214441490   -0.888272000000
 C    0.952768506934   -0.432821441490    0.000000000000
 O    0.791664506934    0.776729558510    0.000000000000
 O    2.195054506934   -1.009829441490    0.000000000000
 H    2.829590506934   -0.271266441490    0.000000000000
LI   -8.452914725895    4.589570337763    0.000000000000
