9

 C   -0.905877272854   -1.159168590016    0.000000000000
 H   -1.884804272854   -0.667380590016    0.000000000000
 H   -0.798731272854   -1.798977590016    0.888272000000
 H   -0.798731272854   -1.798977590016   -0.888272000000
 C    0.178749727146   -0.113584590016    0.000000000000
 O    0.017645727146    1.095966409984    0.000000000000
 O    1.421035727146   -0.690592590016    0.000000000000
 H    2.055571727146    0.047970409984    0.000000000000
LI   -1.831270119420    1.858534565834    0.000000000000
