9

 C   -0.896202038106   -1.163159050660    0.000000000000
 H   -1.875129038106   -0.671371050660    0.000000000000
 H   -0.789056038106   -1.802968050660    0.888272000000
 H   -0.789056038106   -1.802968050660   -0.888272000000
 C    0.188424961894   -0.117575050660    0.000000000000
 O    0.027320961894    1.091975949340    0.000000000000
 O    1.430710961894   -0.694583050660    0.000000000000
 H    2.065246961894    0.043979949340    0.000000000000
LI   -1.914040677001    1.892672512983    0.000000000000
