9

 C   -0.886526803359   -1.167149511303    0.000000000000
 H   -1.865453803359   -0.675361511303    0.000000000000
 H   -0.779380803359   -1.806958511303    0.888272000000
 H   -0.779380803359   -1.806958511303   -0.888272000000
 C    0.198100196641   -0.121565511303    0.000000000000
 O    0.036996196641    1.087985488697    0.000000000000
 O    1.440386196641   -0.698573511303    0.000000000000
 H    2.074922196641    0.039989488697    0.000000000000
LI   -1.996811234582    1.926810460133    0.000000000000
