9

 C   -0.876851568612   -1.171139971946    0.000000000000
 H   -1.855778568612   -0.679351971946    0.000000000000
 H   -0.769705568612   -1.810948971946    0.888272000000
 H   -0.769705568612   -1.810948971946   -0.888272000000
 C    0.207775431388   -0.125555971946    0.000000000000
 O    0.046671431388    1.083995028054    0.000000000000
 O    1.450061431388   -0.702563971946    0.000000000000
 H    2.084597431388    0.035999028054    0.000000000000
LI   -2.079581792162    1.960948407282    0.000000000000
