9

 C   -0.838150629622   -1.187101814520    0.000000000000
 H   -1.817077629622   -0.695313814520    0.000000000000
 H   -0.731004629622   -1.826910814520    0.888272000000
 H   -0.731004629622   -1.826910814520   -0.888272000000
 C    0.246476370378   -0.141517814520    0.000000000000
 O    0.085372370378    1.068033185480    0.000000000000
 O    1.488762370378   -0.718525814520    0.000000000000
 H    2.123298370378    0.020037185480    0.000000000000
LI   -2.410664022486    2.097500195878    0.000000000000
