9

 C   -0.809124925380   -1.199073196450    0.000000000000
 H   -1.788051925380   -0.707285196450    0.000000000000
 H   -0.701978925380   -1.838882196450    0.888272000000
 H   -0.701978925380   -1.838882196450   -0.888272000000
 C    0.275502074620   -0.153489196450    0.000000000000
 O    0.114398074620    1.056061803550    0.000000000000
 O    1.517788074620   -0.730497196450    0.000000000000
 H    2.152324074620    0.008065803550    0.000000000000
LI   -2.658975695229    2.199914037325    0.000000000000
