9

 C   -0.799449690633   -1.203063657094    0.000000000000
 H   -1.778376690633   -0.711275657094    0.000000000000
 H   -0.692303690633   -1.842872657094    0.888272000000
 H   -0.692303690633   -1.842872657094   -0.888272000000
 C    0.285177309367   -0.157479657094    0.000000000000
 O    0.124073309367    1.052071342906    0.000000000000
 O    1.527463309367   -0.734487657094    0.000000000000
 H    2.161999309367    0.004075342906    0.000000000000
LI   -2.741746252810    2.234051984475    0.000000000000
