9

 C   -0.789774455885   -1.207054117737    0.000000000000
 H   -1.768701455885   -0.715266117737    0.000000000000
 H   -0.682628455885   -1.846863117737    0.888272000000
 H   -0.682628455885   -1.846863117737   -0.888272000000
 C    0.294852544115   -0.161470117737    0.000000000000
 O    0.133748544115    1.048080882263    0.000000000000
 O    1.537138544115   -0.738478117737    0.000000000000
 H    2.171674544115    0.000084882263    0.000000000000
LI   -2.824516810391    2.268189931624    0.000000000000
