9

 C   -0.770423986391   -1.215035039024    0.000000000000
 H   -1.749350986391   -0.723247039024    0.000000000000
 H   -0.663277986391   -1.854844039024    0.888272000000
 H   -0.663277986391   -1.854844039024   -0.888272000000
 C    0.314203013609   -0.169451039024    0.000000000000
 O    0.153099013609    1.040099960976    0.000000000000
 O    1.556489013609   -0.746459039024    0.000000000000
 H    2.191025013609   -0.007896039024    0.000000000000
LI   -2.990057925553    2.336465825922    0.000000000000
