9

 C   -0.760748751643   -1.219025499667    0.000000000000
 H   -1.739675751643   -0.727237499667    0.000000000000
 H   -0.653602751643   -1.858834499667    0.888272000000
 H   -0.653602751643   -1.858834499667   -0.888272000000
 C    0.323878248357   -0.173441499667    0.000000000000
 O    0.162774248357    1.036109500333    0.000000000000
 O    1.566164248357   -0.750449499667    0.000000000000
 H    2.200700248357   -0.011886499667    0.000000000000
LI   -3.072828483134    2.370603773071    0.000000000000
