9

 C   -0.712372577907   -1.238977802885    0.000000000000
 H   -1.691299577907   -0.747189802885    0.000000000000
 H   -0.605226577907   -1.878786802885    0.888272000000
 H   -0.605226577907   -1.878786802885   -0.888272000000
 C    0.372254422093   -0.193393802885    0.000000000000
 O    0.211150422093    1.016157197115    0.000000000000
 O    1.614540422093   -0.770401802885    0.000000000000
 H    2.249076422093   -0.031838802885    0.000000000000
LI   -3.486681271039    2.541293508817    0.000000000000
