9

 C   -0.693022108412   -1.246958724171    0.000000000000
 H   -1.671949108412   -0.755170724171    0.000000000000
 H   -0.585876108412   -1.886767724171    0.888272000000
 H   -0.585876108412   -1.886767724171   -0.888272000000
 C    0.391604891588   -0.201374724171    0.000000000000
 O    0.230500891588    1.008176275829    0.000000000000
 O    1.633890891588   -0.778382724171    0.000000000000
 H    2.268426891588   -0.039819724171    0.000000000000
LI   -3.652222386200    2.609569403115    0.000000000000
