9

 C   -0.663996404170   -1.258930106102    0.000000000000
 H   -1.642923404170   -0.767142106102    0.000000000000
 H   -0.556850404170   -1.898739106102    0.888272000000
 H   -0.556850404170   -1.898739106102   -0.888272000000
 C    0.420630595830   -0.213346106102    0.000000000000
 O    0.259526595830    0.996204893898    0.000000000000
 O    1.662916595830   -0.790354106102    0.000000000000
 H    2.297452595830   -0.051791106102    0.000000000000
LI   -3.900534058943    2.711983244562    0.000000000000
