9

 C   -0.625295465180   -1.274891948675    0.000000000000
 H   -1.604222465180   -0.783103948675    0.000000000000
 H   -0.518149465180   -1.914700948675    0.888272000000
 H   -0.518149465180   -1.914700948675   -0.888272000000
 C    0.459331534820   -0.229307948675    0.000000000000
 O    0.298227534820    0.980243051325    0.000000000000
 O    1.701617534820   -0.806315948675    0.000000000000
 H    2.336153534820   -0.067752948675    0.000000000000
LI   -4.231616289267    2.848535033159    0.000000000000
