9

 C   -0.615620230433   -1.278882409319    0.000000000000
 H   -1.594547230433   -0.787094409319    0.000000000000
 H   -0.508474230433   -1.918691409319    0.888272000000
 H   -0.508474230433   -1.918691409319   -0.888272000000
 C    0.469006769567   -0.233298409319    0.000000000000
 O    0.307902769567    0.976252590681    0.000000000000
 O    1.711292769567   -0.810306409319    0.000000000000
 H    2.345828769567   -0.071743409319    0.000000000000
LI   -4.314386846848    2.882672980308    0.000000000000
