9

 C   -0.605944995686   -1.282872869962    0.000000000000
 H   -1.584871995686   -0.791084869962    0.000000000000
 H   -0.498798995686   -1.922681869962    0.888272000000
 H   -0.498798995686   -1.922681869962   -0.888272000000
 C    0.478682004314   -0.237288869962    0.000000000000
 O    0.317578004314    0.972262130038    0.000000000000
 O    1.720968004314   -0.814296869962    0.000000000000
 H    2.355504004314   -0.075733869962    0.000000000000
LI   -4.397157404429    2.916810927457    0.000000000000
