9

 C   -0.586594526191   -1.290853791249    0.000000000000
 H   -1.565521526191   -0.799065791249    0.000000000000
 H   -0.479448526191   -1.930662791249    0.888272000000
 H   -0.479448526191   -1.930662791249   -0.888272000000
 C    0.498032473809   -0.245269791249    0.000000000000
 O    0.336928473809    0.964281208751    0.000000000000
 O    1.740318473809   -0.822277791249    0.000000000000
 H    2.374854473809   -0.083714791249    0.000000000000
LI   -4.562698519591    2.985086821755    0.000000000000
