9

 C   -0.557568821949   -1.302825173179    0.000000000000
 H   -1.536495821949   -0.811037173179    0.000000000000
 H   -0.450422821949   -1.942634173179    0.888272000000
 H   -0.450422821949   -1.942634173179   -0.888272000000
 C    0.527058178051   -0.257241173179    0.000000000000
 O    0.365954178051    0.952309826821    0.000000000000
 O    1.769344178051   -0.834249173179    0.000000000000
 H    2.403880178051   -0.095686173179    0.000000000000
LI   -4.811010192334    3.087500663202    0.000000000000
