9

 C   -0.547893587202   -1.306815633823    0.000000000000
 H   -1.526820587202   -0.815027633823    0.000000000000
 H   -0.440747587202   -1.946624633823    0.888272000000
 H   -0.440747587202   -1.946624633823   -0.888272000000
 C    0.536733412798   -0.261231633823    0.000000000000
 O    0.375629412798    0.948319366177    0.000000000000
 O    1.779019412798   -0.838239633823    0.000000000000
 H    2.413555412798   -0.099676633823    0.000000000000
LI   -4.893780749915    3.121638610352    0.000000000000
