9

 C   -0.518867882960   -1.318787015753    0.000000000000
 H   -1.497794882960   -0.826999015753    0.000000000000
 H   -0.411721882960   -1.958596015753    0.888272000000
 H   -0.411721882960   -1.958596015753   -0.888272000000
 C    0.565759117040   -0.273203015753    0.000000000000
 O    0.404655117040    0.936347984247    0.000000000000
 O    1.808045117040   -0.850211015753    0.000000000000
 H    2.442581117040   -0.111648015753    0.000000000000
LI   -5.142092422657    3.224052451799    0.000000000000
