9

 C   -0.509192648212   -1.322777476396    0.000000000000
 H   -1.488119648212   -0.830989476396    0.000000000000
 H   -0.402046648212   -1.962586476396    0.888272000000
 H   -0.402046648212   -1.962586476396   -0.888272000000
 C    0.575434351788   -0.277193476396    0.000000000000
 O    0.414330351788    0.932357523604    0.000000000000
 O    1.817720351788   -0.854201476396    0.000000000000
 H    2.452256351788   -0.115638476396    0.000000000000
LI   -5.224862980238    3.258190398948    0.000000000000
