9

 C   -0.480166943970   -1.334748858327    0.000000000000
 H   -1.459093943970   -0.842960858327    0.000000000000
 H   -0.373020943970   -1.974557858327    0.888272000000
 H   -0.373020943970   -1.974557858327   -0.888272000000
 C    0.604460056030   -0.289164858327    0.000000000000
 O    0.443356056030    0.920386141673    0.000000000000
 O    1.846746056030   -0.866172858327    0.000000000000
 H    2.481282056030   -0.127609858327    0.000000000000
LI   -5.473174652981    3.360604240395    0.000000000000
