9

 C   -0.470491709223   -1.338739318970    0.000000000000
 H   -1.449418709223   -0.846951318970    0.000000000000
 H   -0.363345709223   -1.978548318970    0.888272000000
 H   -0.363345709223   -1.978548318970   -0.888272000000
 C    0.614135290777   -0.293155318970    0.000000000000
 O    0.453031290777    0.916395681030    0.000000000000
 O    1.856421290777   -0.870163318970    0.000000000000
 H    2.490957290777   -0.131600318970    0.000000000000
LI   -5.555945210562    3.394742187544    0.000000000000
