9

 C   -0.441466004981   -1.350710700900    0.000000000000
 H   -1.420393004981   -0.858922700900    0.000000000000
 H   -0.334320004981   -1.990519700900    0.888272000000
 H   -0.334320004981   -1.990519700900   -0.888272000000
 C    0.643160995019   -0.305126700900    0.000000000000
 O    0.482056995019    0.904424299100    0.000000000000
 O    1.885446995019   -0.882134700900    0.000000000000
 H    2.519982995019   -0.143571700900    0.000000000000
LI   -5.804256883305    3.497156028992    0.000000000000
