9

 C   -0.383414596497   -1.374653464761    0.000000000000
 H   -1.362341596497   -0.882865464761    0.000000000000
 H   -0.276268596497   -2.014462464761    0.888272000000
 H   -0.276268596497   -2.014462464761   -0.888272000000
 C    0.701212403503   -0.329069464761    0.000000000000
 O    0.540108403503    0.880481535239    0.000000000000
 O    1.943498403503   -0.906077464761    0.000000000000
 H    2.578034403503   -0.167514464761    0.000000000000
LI   -6.300880228791    3.701983711886    0.000000000000
