9

 C   -0.344713657507   -1.390615307334    0.000000000000
 H   -1.323640657507   -0.898827307334    0.000000000000
 H   -0.237567657507   -2.030424307334    0.888272000000
 H   -0.237567657507   -2.030424307334   -0.888272000000
 C    0.739913342493   -0.345031307334    0.000000000000
 O    0.578809342493    0.864519692666    0.000000000000
 O    1.982199342493   -0.922039307334    0.000000000000
 H    2.616735342493   -0.183476307334    0.000000000000
LI   -6.631962459114    3.838535500483    0.000000000000
