9

 C   -0.335038422760   -1.394605767978    0.000000000000
 H   -1.313965422760   -0.902817767978    0.000000000000
 H   -0.227892422760   -2.034414767978    0.888272000000
 H   -0.227892422760   -2.034414767978   -0.888272000000
 C    0.749588577240   -0.349021767978    0.000000000000
 O    0.588484577240    0.860529232022    0.000000000000
 O    1.991874577240   -0.926029767978    0.000000000000
 H    2.626410577240   -0.187466767978    0.000000000000
LI   -6.714733016695    3.872673447632    0.000000000000
