9

 C   -0.325363188013   -1.398596228621    0.000000000000
 H   -1.304290188013   -0.906808228621    0.000000000000
 H   -0.218217188013   -2.038405228621    0.888272000000
 H   -0.218217188013   -2.038405228621   -0.888272000000
 C    0.759263811987   -0.353012228621    0.000000000000
 O    0.598159811987    0.856538771379    0.000000000000
 O    2.001549811987   -0.930020228621    0.000000000000
 H    2.636085811987   -0.191457228621    0.000000000000
LI   -6.797503574276    3.906811394781    0.000000000000
