9

 C   -0.306012718518   -1.406577149908    0.000000000000
 H   -1.284939718518   -0.914789149908    0.000000000000
 H   -0.198866718518   -2.046386149908    0.888272000000
 H   -0.198866718518   -2.046386149908   -0.888272000000
 C    0.778614281482   -0.360993149908    0.000000000000
 O    0.617510281482    0.848557850092    0.000000000000
 O    2.020900281482   -0.938001149908    0.000000000000
 H    2.655436281482   -0.199438149908    0.000000000000
LI   -6.963044689438    3.975087289079    0.000000000000
