9

 C   -0.296337483771   -1.410567610551    0.000000000000
 H   -1.275264483771   -0.918779610551    0.000000000000
 H   -0.189191483771   -2.050376610551    0.888272000000
 H   -0.189191483771   -2.050376610551   -0.888272000000
 C    0.788289516229   -0.364983610551    0.000000000000
 O    0.627185516229    0.844567389449    0.000000000000
 O    2.030575516229   -0.941991610551    0.000000000000
 H    2.665111516229   -0.203428610551    0.000000000000
LI   -7.045815247019    4.009225236228    0.000000000000
