9

 C   -0.286662249023   -1.414558071195    0.000000000000
 H   -1.265589249023   -0.922770071195    0.000000000000
 H   -0.179516249023   -2.054367071195    0.888272000000
 H   -0.179516249023   -2.054367071195   -0.888272000000
 C    0.797964750977   -0.368974071195    0.000000000000
 O    0.636860750977    0.840576928805    0.000000000000
 O    2.040250750977   -0.945982071195    0.000000000000
 H    2.674786750977   -0.207419071195    0.000000000000
LI   -7.128585804600    4.043363183378    0.000000000000
