9

 C   -0.247961310034   -1.430519913769    0.000000000000
 H   -1.226888310034   -0.938731913769    0.000000000000
 H   -0.140815310034   -2.070328913769    0.888272000000
 H   -0.140815310034   -2.070328913769   -0.888272000000
 C    0.836665689966   -0.384935913769    0.000000000000
 O    0.675561689966    0.824615086231    0.000000000000
 O    2.078951689966   -0.961943913769    0.000000000000
 H    2.713487689966   -0.223380913769    0.000000000000
LI   -7.459668034924    4.179914971974    0.000000000000
