9

 C   -0.228610840539   -1.438500835055    0.000000000000
 H   -1.207537840539   -0.946712835055    0.000000000000
 H   -0.121464840539   -2.078309835055    0.888272000000
 H   -0.121464840539   -2.078309835055   -0.888272000000
 C    0.856016159461   -0.392916835055    0.000000000000
 O    0.694912159461    0.816634164945    0.000000000000
 O    2.098302159461   -0.969924835055    0.000000000000
 H    2.732838159461   -0.231361835055    0.000000000000
LI   -7.625209150086    4.248190866272    0.000000000000
