9

 C   -0.218935605792   -1.442491295699    0.000000000000
 H   -1.197862605792   -0.950703295699    0.000000000000
 H   -0.111789605792   -2.082300295699    0.888272000000
 H   -0.111789605792   -2.082300295699   -0.888272000000
 C    0.865691394208   -0.396907295699    0.000000000000
 O    0.704587394208    0.812643704301    0.000000000000
 O    2.107977394208   -0.973915295699    0.000000000000
 H    2.742513394208   -0.235352295699    0.000000000000
LI   -7.707979707667    4.282328813421    0.000000000000
