9

 C   -0.209260371044   -1.446481756342    0.000000000000
 H   -1.188187371044   -0.954693756342    0.000000000000
 H   -0.102114371044   -2.086290756342    0.888272000000
 H   -0.102114371044   -2.086290756342   -0.888272000000
 C    0.875366628956   -0.400897756342    0.000000000000
 O    0.714262628956    0.808653243658    0.000000000000
 O    2.117652628956   -0.977905756342    0.000000000000
 H    2.752188628956   -0.239342756342    0.000000000000
LI   -7.790750265248    4.316466760570    0.000000000000
