9

 C   -0.199585136297   -1.450472216986    0.000000000000
 H   -1.178512136297   -0.958684216986    0.000000000000
 H   -0.092439136297   -2.090281216986    0.888272000000
 H   -0.092439136297   -2.090281216986   -0.888272000000
 C    0.885041863703   -0.404888216986    0.000000000000
 O    0.723937863703    0.804662783014    0.000000000000
 O    2.127327863703   -0.981896216986    0.000000000000
 H    2.761863863703   -0.243333216986    0.000000000000
LI   -7.873520822829    4.350604707720    0.000000000000
