9

 C   -0.189909901550   -1.454462677629    0.000000000000
 H   -1.168836901550   -0.962674677629    0.000000000000
 H   -0.082763901550   -2.094271677629    0.888272000000
 H   -0.082763901550   -2.094271677629   -0.888272000000
 C    0.894717098450   -0.408878677629    0.000000000000
 O    0.733613098450    0.800672322371    0.000000000000
 O    2.137003098450   -0.985886677629    0.000000000000
 H    2.771539098450   -0.247323677629    0.000000000000
LI   -7.956291380410    4.384742654869    0.000000000000
