9

 C   -0.160884197308   -1.466434059559    0.000000000000
 H   -1.139811197308   -0.974646059559    0.000000000000
 H   -0.053738197308   -2.106243059559    0.888272000000
 H   -0.053738197308   -2.106243059559   -0.888272000000
 C    0.923742802692   -0.420850059559    0.000000000000
 O    0.762638802692    0.788700940441    0.000000000000
 O    2.166028802692   -0.997858059559    0.000000000000
 H    2.800564802692   -0.259295059559    0.000000000000
LI   -8.204603053152    4.487156496316    0.000000000000
