28

 P    1.185943469881   -1.255663397553    0.576820762791
 O    0.577113469881   -0.224723397553    1.556820762791
 O    0.745153469881   -1.110483397553   -0.899229237209
 O    2.812993469881   -1.291343397553    0.700480762791
 O    0.948813469881   -2.781263397553    1.109790762791
 C    3.480803469881   -0.071503397553    0.317780762791
 H    3.158013469881    0.762786602447    0.958430762791
 H    3.281673469881    0.162746602447   -0.738619237209
 H    4.551433469881   -0.252703397553    0.459900762791
 C   -0.430456530119   -3.198583397553    1.166440762791
 H   -0.884166530119   -3.171593397553    0.164370762791
 H   -0.999826530119   -2.558823397553    1.857310762791
 H   -0.422656530119   -4.228243397553    1.539700762791
LI   -0.600386530119    1.102846602447    1.376800762791
LI   -0.361026530119   -0.084913397553   -1.844419237209
 P   -1.131982110410    1.198529754428   -0.550578519093
 O   -2.759029903134    1.234203821120   -0.674236022139
 O   -0.894850587112    2.724132504378   -1.083531718168
 O   -0.523142745041    0.167594233715   -1.530582219193
 O   -0.691200873268    1.053343254195    0.925476739098
 C   -3.426837769622    0.014362016995   -0.291548364558
 H   -3.104043194004   -0.819920587252   -0.932201381567
 H   -3.227707015993   -0.219889672814    0.764850774821
 H   -4.497469938101    0.195568470019   -0.433670831472
 C    0.484414553300    3.141455133680   -1.140174744365
 H    0.938117920799    3.114462984345   -0.138101499988
 H    1.053791943374    2.501703479339   -1.831057757646
 H    0.476613612108    4.171118979775   -1.513438695158
