28

 P    1.216776648529   -1.288309215234    0.591817492522
 O    0.607946648529   -0.257369215234    1.571817492522
 O    0.775986648529   -1.143129215234   -0.884232507478
 O    2.843826648529   -1.323989215234    0.715477492522
 O    0.979646648529   -2.813909215234    1.124787492522
 C    3.511636648529   -0.104149215234    0.332777492522
 H    3.188846648529    0.730140784766    0.973427492522
 H    3.312506648529    0.130100784766   -0.723622507478
 H    4.582266648529   -0.285349215234    0.474897492522
 C   -0.399623351471   -3.231229215234    1.181437492522
 H   -0.853333351471   -3.204239215234    0.179367492522
 H   -0.968993351471   -2.591469215234    1.872307492522
 H   -0.391823351471   -4.260889215234    1.554697492522
LI   -0.569553351471    1.070200784766    1.391797492522
LI   -0.330193351471   -0.117559215234   -1.829422507478
 P   -1.166276489792    1.234840251946   -0.567258717550
 O   -2.793324282515    1.270514318638   -0.690916220595
 O   -0.929144966493    2.760443001896   -1.100211916625
 O   -0.557437124423    0.203904731233   -1.547262417650
 O   -0.725495252650    1.089653751713    0.908796540641
 C   -3.461132149004    0.050672514513   -0.308228563015
 H   -3.138337573386   -0.783610089735   -0.948881580024
 H   -3.262001395375   -0.183579175297    0.748170576364
 H   -4.531764317482    0.231878967537   -0.450351029929
 C    0.450120173919    3.177765631198   -1.156854942821
 H    0.903823541417    3.150773481863   -0.154781698445
 H    1.019497563993    2.538013976857   -1.847737956103
 H    0.442319232726    4.207429477292   -1.530118893615
