28

 P    1.309276184472   -1.386246668275    0.636807681717
 O    0.700446184472   -0.355306668275    1.616807681717
 O    0.868486184472   -1.241066668275   -0.839242318283
 O    2.936326184472   -1.421926668275    0.760467681717
 O    1.072146184472   -2.911846668275    1.169777681717
 C    3.604136184472   -0.202086668275    0.377767681717
 H    3.281346184472    0.632203331725    1.018417681717
 H    3.405006184472    0.032163331725   -0.678632318283
 H    4.674766184472   -0.383286668275    0.519887681717
 C   -0.307123815528   -3.329166668275    1.226427681717
 H   -0.760833815528   -3.302176668275    0.224357681717
 H   -0.876493815528   -2.689406668275    1.917297681717
 H   -0.299323815528   -4.358826668275    1.599687681717
LI   -0.477053815528    0.972263331725    1.436787681717
LI   -0.237693815528   -0.215496668275   -1.784432318283
 P   -1.269159627936    1.343771744499   -0.617299312921
 O   -2.896207420660    1.379445811191   -0.740956815966
 O   -1.032028104638    2.869374494449   -1.150252511996
 O   -0.660320262567    0.312836223786   -1.597303013020
 O   -0.828378390794    1.198585244266    0.858755945270
 C   -3.564015287148    0.159604007066   -0.358269158386
 H   -3.241220711531   -0.674678597181   -0.998922175394
 H   -3.364884533519   -0.074647682743    0.698129980993
 H   -4.634647455627    0.340810460090   -0.500391625300
 C    0.347237035774    3.286697123751   -1.206895538192
 H    0.800940403273    3.259704974417   -0.204822293816
 H    0.916614425848    2.646945469410   -1.897778551474
 H    0.339436094581    4.316360969846   -1.580159488985
