28

 P    1.401775720415   -1.484184121316    0.681797870911
 O    0.792945720415   -0.453244121316    1.661797870911
 O    0.960985720415   -1.339004121316   -0.794252129089
 O    3.028825720415   -1.519864121316    0.805457870911
 O    1.164645720415   -3.009784121316    1.214767870911
 C    3.696635720415   -0.300024121316    0.422757870911
 H    3.373845720415    0.534265878684    1.063407870911
 H    3.497505720415   -0.065774121316   -0.633642129089
 H    4.767265720415   -0.481224121316    0.564877870911
 C   -0.214624279585   -3.427104121316    1.271417870911
 H   -0.668334279585   -3.400114121316    0.269347870911
 H   -0.783994279585   -2.787344121316    1.962287870911
 H   -0.206824279585   -4.456764121316    1.644677870911
LI   -0.384554279585    0.874325878684    1.481777870911
LI   -0.145194279585   -0.313434121316   -1.739442129089
 P   -1.372042766081    1.452703237053   -0.667339908291
 O   -2.999090558804    1.488377303745   -0.790997411336
 O   -1.134911242782    2.978305987002   -1.200293107366
 O   -0.763203400712    0.421767716339   -1.647343608390
 O   -0.931261528939    1.307516736819    0.808715349900
 C   -3.666898425293    0.268535499619   -0.408309753756
 H   -3.344103849675   -0.565747104628   -1.048962770765
 H   -3.467767671664    0.034283809810    0.648089385623
 H   -4.737530593771    0.449741952643   -0.550432220670
 C    0.244353897630    3.395628616305   -1.256936133562
 H    0.698057265128    3.368636466970   -0.254862889186
 H    0.813731287703    2.755876961964   -1.947819146844
 H    0.236552956437    4.425292462399   -1.630200084356
