28

 P    1.463442077710   -1.549475756676    0.711791330375
 O    0.854612077710   -0.518535756676    1.691791330375
 O    1.022652077710   -1.404295756676   -0.764258669625
 O    3.090492077710   -1.585155756676    0.835451330375
 O    1.226312077710   -3.075075756676    1.244761330375
 C    3.758302077710   -0.365315756676    0.452751330375
 H    3.435512077710    0.468974243324    1.093401330375
 H    3.559172077710   -0.131065756676   -0.603648669625
 H    4.828932077710   -0.546515756676    0.594871330375
 C   -0.152957922290   -3.492395756676    1.301411330375
 H   -0.606667922290   -3.465405756676    0.299341330375
 H   -0.722327922290   -2.852635756676    1.992281330375
 H   -0.145157922290   -4.522055756676    1.674671330375
LI   -0.322887922290    0.809034243324    1.511771330375
LI   -0.083527922290   -0.378725756676   -1.709448669625
 P   -1.440631524844    1.525324232088   -0.700700305205
 O   -3.067679317568    1.560998298780   -0.824357808250
 O   -1.203500001545    3.050926982038   -1.233653504280
 O   -0.831792159475    0.494388711375   -1.680704005304
 O   -0.999850287702    1.380137731855    0.775354952986
 C   -3.735487184056    0.341156494655   -0.441670150670
 H   -3.412692608438   -0.493126109592   -1.082323167678
 H   -3.536356430427    0.106904804846    0.614728988709
 H   -4.806119352534    0.522362947679   -0.583792617584
 C    0.175765138867    3.468249611340   -1.290296530476
 H    0.629468506365    3.441257462006   -0.288223286100
 H    0.745142528940    2.828497957000   -1.981179543758
 H    0.167964197674    4.497913457435   -1.663560481269
