28

 P    1.555941613653   -1.647413209717    0.756781519569
 O    0.947111613653   -0.616473209717    1.736781519569
 O    1.115151613653   -1.502233209717   -0.719268480431
 O    3.182991613653   -1.683093209717    0.880441519569
 O    1.318811613653   -3.173013209717    1.289751519569
 C    3.850801613653   -0.463253209717    0.497741519569
 H    3.528011613653    0.371036790283    1.138391519569
 H    3.651671613653   -0.229003209717   -0.558658480431
 H    4.921431613653   -0.644453209717    0.639861519569
 C   -0.060458386347   -3.590333209717    1.346401519569
 H   -0.514168386347   -3.563343209717    0.344331519569
 H   -0.629828386347   -2.950573209717    2.037271519569
 H   -0.052658386347   -4.619993209717    1.719661519569
LI   -0.230388386347    0.711096790283    1.556761519569
LI    0.008971613653   -0.476663209717   -1.664458480431
 P   -1.543514662989    1.634255724642   -0.750740900575
 O   -3.170562455712    1.669929791334   -0.874398403620
 O   -1.306383139690    3.159858474591   -1.283694099650
 O   -0.934675297620    0.603320203929   -1.730744600675
 O   -1.102733425847    1.489069224409    0.725314357616
 C   -3.838370322201    0.450087987208   -0.491710746040
 H   -3.515575746583   -0.384194617039   -1.132363763049
 H   -3.639239568572    0.215836297399    0.564688393339
 H   -4.909002490679    0.631294440232   -0.633833212954
 C    0.072882000722    3.577181103894   -1.340337125847
 H    0.526585368220    3.550188954559   -0.338263881470
 H    0.642259390796    2.937429449553   -2.031220139128
 H    0.065081059529    4.606844949988   -1.713601076640
