28

 P    1.586774792300   -1.680059027398    0.771778249301
 O    0.977944792300   -0.649119027398    1.751778249301
 O    1.145984792300   -1.534879027398   -0.704271750699
 O    3.213824792300   -1.715739027398    0.895438249301
 O    1.349644792300   -3.205659027398    1.304748249301
 C    3.881634792300   -0.495899027398    0.512738249301
 H    3.558844792300    0.338390972602    1.153388249301
 H    3.682504792300   -0.261649027398   -0.543661750699
 H    4.952264792300   -0.677099027398    0.654858249301
 C   -0.029625207700   -3.622979027398    1.361398249301
 H   -0.483335207700   -3.595989027398    0.359328249301
 H   -0.598995207700   -2.983219027398    2.052268249301
 H   -0.021825207700   -4.652639027398    1.734658249301
LI   -0.199555207700    0.678450972602    1.571758249301
LI    0.039804792300   -0.509309027398   -1.649461750699
 P   -1.577809042370    1.670566222160   -0.767421099032
 O   -3.204856835094    1.706240288852   -0.891078602077
 O   -1.340677519072    3.196168972109   -1.300374298107
 O   -0.968969677001    0.639630701446   -1.747424799131
 O   -1.137027805228    1.525379721926    0.708634159159
 C   -3.872664701582    0.486398484726   -0.508390944497
 H   -3.549870125964   -0.347884119521   -1.149043961506
 H   -3.673533947953    0.252146794917    0.548008194882
 H   -4.943296870061    0.667604937750   -0.650513411411
 C    0.038587621340    3.613491601411   -1.357017324303
 H    0.492290988839    3.586499452077   -0.354944079927
 H    0.607965011414    2.973739947071   -2.047900337585
 H    0.030786680148    4.643155447506   -1.730281275097
