28

 P    1.648441149596   -1.745350662758    0.801771708764
 O    1.039611149596   -0.714410662758    1.781771708764
 O    1.207651149596   -1.600170662758   -0.674278291236
 O    3.275491149596   -1.781030662758    0.925431708764
 O    1.411311149596   -3.270950662758    1.334741708764
 C    3.943301149596   -0.561190662758    0.542731708764
 H    3.620511149596    0.273099337242    1.183381708764
 H    3.744171149596   -0.326940662758   -0.513668291236
 H    5.013931149596   -0.742390662758    0.684851708764
 C    0.032041149596   -3.688270662758    1.391391708764
 H   -0.421668850404   -3.661280662758    0.389321708764
 H   -0.537328850404   -3.048510662758    2.082261708764
 H    0.039841149596   -4.717930662758    1.764651708764
LI   -0.137888850404    0.613159337242    1.601751708764
LI    0.101471149596   -0.574600662758   -1.619468291236
 P   -1.646397801133    1.743187217195   -0.800781495946
 O   -3.273445593857    1.778861283887   -0.924438998991
 O   -1.409266277835    3.268789967145   -1.333734695021
 O   -1.037558435764    0.712251696482   -1.780785196045
 O   -1.205616563991    1.598000716962    0.675273762245
 C   -3.941253460345    0.559019479762   -0.541751341411
 H   -3.618458884728   -0.275263124485   -1.182404358419
 H   -3.742122706716    0.324767789953    0.514647797968
 H   -5.011885628824    0.740225932786   -0.683873808325
 C   -0.030001137423    3.686112596447   -1.390377721217
 H    0.423702230076    3.659120447113   -0.388304476841
 H    0.539376252651    3.046360942106   -2.081260734499
 H   -0.037802078616    4.715776442542   -1.763641672010
