28

 P    1.771773864186   -1.875933933480    0.861758627690
 O    1.162943864186   -0.844993933480    1.841758627690
 O    1.330983864186   -1.730753933480   -0.614291372310
 O    3.398823864186   -1.911613933480    0.985418627690
 O    1.534643864186   -3.401533933480    1.394728627690
 C    4.066633864186   -0.691773933480    0.602718627690
 H    3.743843864186    0.142516066520    1.243368627690
 H    3.867503864186   -0.457523933480   -0.453681372310
 H    5.137263864186   -0.872973933480    0.744838627690
 C    0.155373864186   -3.818853933480    1.451378627690
 H   -0.298336135814   -3.791863933480    0.449308627690
 H   -0.413996135814   -3.179093933480    2.142248627690
 H    0.163173864186   -4.848513933480    1.824638627690
LI   -0.014556135814    0.482576066520    1.661738627690
LI    0.224803864186   -0.705183933480   -1.559481372310
 P   -1.783575318660    1.888429207267   -0.867502289773
 O   -3.410623111383    1.924103273959   -0.991159792818
 O   -1.546443795361    3.414031957216   -1.400455488848
 O   -1.174735953291    0.857493686553   -1.847505989872
 O   -1.342794081518    1.743242707033    0.608552968418
 C   -4.078430977872    0.704261469833   -0.608472135238
 H   -3.755636402254   -0.130021134414   -1.249125152247
 H   -3.879300224242    0.470009780024    0.447927004141
 H   -5.149063146350    0.885467922857   -0.750594602152
 C   -0.167178654949    3.831354586518   -1.457098515044
 H    0.286524712549    3.804362437184   -0.455025270668
 H    0.402198735125    3.191602932178   -2.147981528326
 H   -0.174979596142    4.861018432613   -1.830362465838
