28

 P    2.080105650662   -2.202392110283    1.011725925006
 O    1.471275650662   -1.171452110283    1.991725925006
 O    1.639315650662   -2.057212110283   -0.464324074994
 O    3.707155650662   -2.238072110283    1.135385925006
 O    1.842975650662   -3.727992110283    1.544695925006
 C    4.374965650662   -1.018232110283    0.752685925006
 H    4.052175650662   -0.183942110283    1.393335925006
 H    4.175835650662   -0.783982110283   -0.303714074994
 H    5.445595650662   -1.199432110283    0.894805925006
 C    0.463705650662   -4.145312110283    1.601345925006
 H    0.009995650662   -4.118322110283    0.599275925006
 H   -0.105664349338   -3.505552110283    2.292215925006
 H    0.471505650662   -5.174972110283    1.974605925006
LI    0.293775650662    0.156117889717    1.811705925006
LI    0.533135650662   -1.031642110283   -1.409514074994
 P   -2.126519112475    2.251534182445   -1.034304274341
 O   -3.753566905199    2.287208249137   -1.157961777386
 O   -1.889387589176    3.777136932394   -1.567257473416
 O   -1.517679747106    1.220598661731   -2.014307974441
 O   -1.685737875333    2.106347682211    0.441750983850
 C   -4.421374771687    1.067366445011   -0.775274119806
 H   -4.098580196069    0.233083840764   -1.415927136815
 H   -4.222244018058    0.833114755202    0.281125019573
 H   -5.492006940165    1.248572898035   -0.917396586720
 C   -0.510122448764    4.194459561696   -1.623900499613
 H   -0.056419081266    4.167467412362   -0.621827255236
 H    0.059254941309    3.554707907356   -2.314783512894
 H   -0.517923389957    5.224123407791   -1.997164450406
