28

 P    2.141772007957   -2.267683745644    1.041719384469
 O    1.532942007957   -1.236743745644    2.021719384469
 O    1.700982007957   -2.122503745644   -0.434330615531
 O    3.768822007957   -2.303363745644    1.165379384469
 O    1.904642007957   -3.793283745644    1.574689384469
 C    4.436632007957   -1.083523745644    0.782679384469
 H    4.113842007957   -0.249233745644    1.423329384469
 H    4.237502007957   -0.849273745644   -0.273720615531
 H    5.507262007957   -1.264723745644    0.924799384469
 C    0.525372007957   -4.210603745644    1.631339384469
 H    0.071662007957   -4.183613745644    0.629269384469
 H   -0.043997992043   -3.570843745644    2.322209384469
 H    0.533172007957   -5.240263745644    2.004599384469
LI    0.355442007957    0.090826254356    1.841699384469
LI    0.594802007957   -1.096933745644   -1.379520615531
 P   -2.195107871238    2.324155177480   -1.067664671255
 O   -3.822155663962    2.359829244172   -1.191322174300
 O   -1.957976347940    3.849757927430   -1.600617870330
 O   -1.586268505869    1.293219656767   -2.047668371354
 O   -1.754326634096    2.178968677247    0.408390586936
 C   -4.489963530450    1.139987440047   -0.808634516720
 H   -4.167168954832    0.305704835800   -1.449287533729
 H   -4.290832776821    0.905735750238    0.247764622659
 H   -5.560595698929    1.321193893071   -0.950756983634
 C   -0.578711207528    4.267080556732   -1.657260896526
 H   -0.125007840029    4.240088407398   -0.655187652150
 H   -0.009333817454    3.627328902391   -2.348143909808
 H   -0.586512148720    5.296744402827   -2.030524847320
