28

 P    2.295937901195   -2.430912834045    1.116703033127
 O    1.687107901195   -1.399972834045    2.096703033127
 O    1.855147901195   -2.285732834045   -0.359346966873
 O    3.922987901195   -2.466592834045    1.240363033127
 O    2.058807901195   -3.956512834045    1.649673033127
 C    4.590797901195   -1.246752834045    0.857663033127
 H    4.268007901195   -0.412462834045    1.498313033127
 H    4.391667901195   -1.012502834045   -0.198736966873
 H    5.661427901195   -1.427952834045    0.999783033127
 C    0.679537901195   -4.373832834045    1.706323033127
 H    0.225827901195   -4.346842834045    0.704253033127
 H    0.110167901195   -3.734072834045    2.397193033127
 H    0.687337901195   -5.403492834045    2.079583033127
LI    0.509607901195   -0.072402834045    1.916683033127
LI    0.748967901195   -1.260162834045   -1.304536966873
 P   -2.366579768146    2.505707665069   -1.151065663539
 O   -3.993627560869    2.541381731761   -1.274723166584
 O   -2.129448244847    4.031310415019   -1.684018862614
 O   -1.757740402777    1.474772144356   -2.131069363638
 O   -1.925798531004    2.360521164836    0.324989594652
 C   -4.661435427358    1.321539927636   -0.892035509004
 H   -4.338640851740    0.487257323389   -1.532688526013
 H   -4.462304673729    1.087288237827    0.164363630375
 H   -5.732067595836    1.502746380660   -1.034157975918
 C   -0.750183104435    4.448633044321   -1.740661888810
 H   -0.296479736937    4.421640894987   -0.738588644434
 H   -0.180805714361    3.808881389980   -2.431544902092
 H   -0.757984045628    5.478296890416   -2.113925839604
