28

 P    2.326771079843   -2.463558651726    1.131699762858
 O    1.717941079843   -1.432618651726    2.111699762858
 O    1.885981079843   -2.318378651726   -0.344350237142
 O    3.953821079843   -2.499238651726    1.255359762858
 O    2.089641079843   -3.989158651726    1.664669762858
 C    4.621631079843   -1.279398651726    0.872659762858
 H    4.298841079843   -0.445108651726    1.513309762858
 H    4.422501079843   -1.045148651726   -0.183740237142
 H    5.692261079843   -1.460598651726    1.014779762858
 C    0.710371079843   -4.406478651726    1.721319762858
 H    0.256661079843   -4.379488651726    0.719249762858
 H    0.141001079843   -3.766718651726    2.412189762858
 H    0.718171079843   -5.436138651726    2.094579762858
LI    0.540441079843   -0.105048651726    1.931679762858
LI    0.779801079843   -1.292808651726   -1.289540237142
 P   -2.400874147527    2.542018162587   -1.167745861996
 O   -4.027921940251    2.577692229279   -1.291403365041
 O   -2.163742624229    4.067620912537   -1.700699061071
 O   -1.792034782159    1.511082641874   -2.147749562095
 O   -1.960092910385    2.396831662354    0.308309396195
 C   -4.695729806739    1.357850425154   -0.908715707461
 H   -4.372935231122    0.523567820907   -1.549368724469
 H   -4.496599053110    1.123598735345    0.147683431918
 H   -5.766361975218    1.539056878178   -1.050838174375
 C   -0.784477483817    4.484943541839   -1.757342087267
 H   -0.330774116318    4.457951392504   -0.755268842891
 H   -0.215100093743    3.845191887498   -2.448225100549
 H   -0.792278425010    5.514607387934   -2.130606038061
