28

 P    2.388437437138   -2.528850287086    1.161693222322
 O    1.779607437138   -1.497910287086    2.141693222322
 O    1.947647437138   -2.383670287086   -0.314356777678
 O    4.015487437138   -2.564530287086    1.285353222322
 O    2.151307437138   -4.054450287086    1.694663222322
 C    4.683297437138   -1.344690287086    0.902653222322
 H    4.360507437138   -0.510400287086    1.543303222322
 H    4.484167437138   -1.110440287086   -0.153746777678
 H    5.753927437138   -1.525890287086    1.044773222322
 C    0.772037437138   -4.471770287086    1.751313222322
 H    0.318327437138   -4.444780287086    0.749243222322
 H    0.202667437138   -3.832010287086    2.442183222322
 H    0.779837437138   -5.501430287086    2.124573222322
LI    0.602107437138   -0.170340287086    1.961673222322
LI    0.841467437138   -1.358100287086   -1.259546777678
 P   -2.469462906291    2.614639157623   -1.201106258909
 O   -4.096510699014    2.650313224315   -1.324763761955
 O   -2.232331382992    4.140241907572   -1.734059457985
 O   -1.860623540922    1.583703636909   -2.181109959009
 O   -2.028681669148    2.469452657389    0.274948999282
 C   -4.764318565503    1.430471420189   -0.942076104375
 H   -4.441523989885    0.596188815942   -1.582729121383
 H   -4.565187811873    1.196219730380    0.114323035004
 H   -5.834950733981    1.611677873213   -1.084198571288
 C   -0.853066242580    4.557564536875   -1.790702484181
 H   -0.399362875082    4.530572387540   -0.788629239804
 H   -0.283688852506    3.917812882534   -2.481585497462
 H   -0.860867183773    5.587228382969   -2.163966434974
