28

 P    2.480936973081   -2.626787740127    1.206683411516
 O    1.872106973081   -1.595847740127    2.186683411516
 O    2.040146973081   -2.481607740127   -0.269366588484
 O    4.107986973081   -2.662467740127    1.330343411516
 O    2.243806973081   -4.152387740127    1.739653411516
 C    4.775796973081   -1.442627740127    0.947643411516
 H    4.453006973081   -0.608337740127    1.588293411516
 H    4.576666973081   -1.208377740127   -0.108756588484
 H    5.846426973081   -1.623827740127    1.089763411516
 C    0.864536973081   -4.569707740127    1.796303411516
 H    0.410826973081   -4.542717740127    0.794233411516
 H    0.295166973081   -3.929947740127    2.487173411516
 H    0.872336973081   -5.599367740127    2.169563411516
LI    0.694606973081   -0.268277740127    2.006663411516
LI    0.933966973081   -1.456037740127   -1.214556588484
 P   -2.572346044435    2.723570650176   -1.251146854280
 O   -4.199393837159    2.759244716868   -1.374804357325
 O   -2.335214521137    4.249173400126   -1.784100053355
 O   -1.963506679066    1.692635129463   -2.231150554379
 O   -2.131564807293    2.578384149943    0.224908403911
 C   -4.867201703647    1.539402912743   -0.992116699745
 H   -4.544407128029    0.705120308496   -1.632769716754
 H   -4.668070950018    1.305151222934    0.064282439634
 H   -5.937833872126    1.720609365767   -1.134239166659
 C   -0.955949380725    4.666496029428   -1.840743079551
 H   -0.502246013226    4.639503880093   -0.838669835175
 H   -0.386571990651    4.026744375087   -2.531626092833
 H   -0.963750321917    5.696159875523   -2.214007030345
