28

 P    2.542603330376   -2.692079375488    1.236676870979
 O    1.933773330376   -1.661139375488    2.216676870979
 O    2.101813330376   -2.546899375488   -0.239373129021
 O    4.169653330376   -2.727759375488    1.360336870979
 O    2.305473330376   -4.217679375488    1.769646870979
 C    4.837463330376   -1.507919375488    0.977636870979
 H    4.514673330376   -0.673629375488    1.618286870979
 H    4.638333330376   -1.273669375488   -0.078763129021
 H    5.908093330376   -1.689119375488    1.119756870979
 C    0.926203330376   -4.634999375488    1.826296870979
 H    0.472493330376   -4.608009375488    0.824226870979
 H    0.356833330376   -3.995239375488    2.517166870979
 H    0.934003330376   -5.664659375488    2.199556870979
LI    0.756273330376   -0.333569375488    2.036656870979
LI    0.995633330376   -1.521329375488   -1.184563129021
 P   -2.640934803198    2.796191645212   -1.284507251194
 O   -4.267982595922    2.831865711904   -1.408164754239
 O   -2.403803279900    4.321794395161   -1.817460450269
 O   -2.032095437829    1.765256124498   -2.264510951293
 O   -2.200153566056    2.651005144979    0.191548006997
 C   -4.935790462410    1.612023907778   -1.025477096659
 H   -4.612995886792    0.777741303531   -1.666130113667
 H   -4.736659708781    1.377772217969    0.030922042720
 H   -6.006422630889    1.793230360802   -1.167599563573
 C   -1.024538139488    4.739117024464   -1.874103476465
 H   -0.570834771989    4.712124875129   -0.872030232089
 H   -0.455160749414    4.099365370123   -2.564986489746
 H   -1.032339080680    5.768780870558   -2.247367427258
