28

 P    2.665936044967   -2.822662646209    1.296663789906
 O    2.057106044967   -1.791722646209    2.276663789906
 O    2.225146044967   -2.677482646209   -0.179386210094
 O    4.292986044967   -2.858342646209    1.420323789906
 O    2.428806044967   -4.348262646209    1.829633789906
 C    4.960796044967   -1.638502646209    1.037623789906
 H    4.638006044967   -0.804212646209    1.678273789906
 H    4.761666044967   -1.404252646209   -0.018776210094
 H    6.031426044967   -1.819702646209    1.179743789906
 C    1.049536044967   -4.765582646209    1.886283789906
 H    0.595826044967   -4.738592646209    0.884213789906
 H    0.480166044967   -4.125822646209    2.577153789906
 H    1.057336044967   -5.795242646209    2.259543789906
LI    0.879606044967   -0.464152646209    2.096643789906
LI    1.118966044967   -1.651912646209   -1.124576210094
 P   -2.778112320724    2.941433635283   -1.351228045021
 O   -4.405160113448    2.977107701975   -1.474885548066
 O   -2.540980797426    4.467036385233   -1.884181244096
 O   -2.169272955356    1.910498114570   -2.331231745120
 O   -2.337331083582    2.796247135050    0.124827213170
 C   -5.072967979936    1.757265897850   -1.092197890486
 H   -4.750173404319    0.922983293602   -1.732850907495
 H   -4.873837226307    1.523014208040   -0.035798751107
 H   -6.143600148415    1.938472350874   -1.234320357400
 C   -1.161715657014    4.884359014535   -1.940824270292
 H   -0.708012289515    4.857366865200   -0.938751025916
 H   -0.592338266940    4.244607360194   -2.631707283574
 H   -1.169516598207    5.914022860630   -2.314088221086
