28

 P    2.789268759557   -2.953245916931    1.356650708832
 O    2.180438759557   -1.922305916931    2.336650708832
 O    2.348478759557   -2.808065916931   -0.119399291168
 O    4.416318759557   -2.988925916931    1.480310708832
 O    2.552138759557   -4.478845916931    1.889620708832
 C    5.084128759557   -1.769085916931    1.097610708832
 H    4.761338759557   -0.934795916931    1.738260708832
 H    4.884998759557   -1.534835916931    0.041210708832
 H    6.154758759557   -1.950285916931    1.239730708832
 C    1.172868759557   -4.896165916931    1.946270708832
 H    0.719158759557   -4.869175916931    0.944200708832
 H    0.603498759557   -4.256405916931    2.637140708832
 H    1.180668759557   -5.925825916931    2.319530708832
LI    1.002938759557   -0.594735916931    2.156630708832
LI    1.242298759557   -1.782495916931   -1.064589291168
 P   -2.915289838251    3.086675625354   -1.417948838848
 O   -4.542337630974    3.122349692046   -1.541606341893
 O   -2.678158314952    4.612278375304   -1.950902037923
 O   -2.306450472882    2.055740104641   -2.397952538948
 O   -2.474508601109    2.941489125121    0.058106419343
 C   -5.210145497463    1.902507887921   -1.158918684313
 H   -4.887350921845    1.068225283674   -1.799571701322
 H   -5.011014743834    1.668256198112   -0.102519544934
 H   -6.280777665941    2.083714340945   -1.301041151227
 C   -1.298893174540    5.029601004606   -2.007545064119
 H   -0.845189807042    5.002608855272   -1.005471819743
 H   -0.729515784466    4.389849350265   -2.698428077401
 H   -1.306694115733    6.059264850701   -2.380809014913
