28

 P    3.035934188738   -3.214412458373    1.476624546684
 O    2.427104188738   -2.183472458373    2.456624546684
 O    2.595144188738   -3.069232458373    0.000574546684
 O    4.662984188738   -3.250092458373    1.600284546684
 O    2.798804188738   -4.740012458373    2.009594546684
 C    5.330794188738   -2.030252458373    1.217584546684
 H    5.008004188738   -1.195962458373    1.858234546684
 H    5.131664188738   -1.796002458373    0.161184546684
 H    6.401424188738   -2.211452458373    1.359704546684
 C    1.419534188738   -5.157332458373    2.066244546684
 H    0.965824188738   -5.130342458373    1.064174546684
 H    0.850164188738   -4.517572458373    2.757114546684
 H    1.427334188738   -6.186992458373    2.439504546684
LI    1.249604188738   -0.855902458373    2.276604546684
LI    1.488964188738   -2.043662458373   -0.944615453316
 P   -3.189644873303    3.377159605497   -1.551390426503
 O   -4.816692666027    3.412833672189   -1.675047929548
 O   -2.952513350004    4.902762355446   -2.084343625578
 O   -2.580805507934    2.346224084783   -2.531394126602
 O   -2.748863636161    3.231973105264   -0.075335168312
 C   -5.484500532515    2.192991868063   -1.292360271968
 H   -5.161705956897    1.358709263816   -1.933013288976
 H   -5.285369778886    1.958740178254   -0.235961132589
 H   -6.555132700993    2.374198321087   -1.434482738882
 C   -1.573248209592    5.320084984749   -2.140986651774
 H   -1.119544842094    5.293092835414   -1.138913407398
 H   -1.003870819519    4.680333330408   -2.831869665056
 H   -1.581049150785    6.349748830843   -2.514250602567
