28

 P    3.097600546033   -3.279704093734    1.506618006148
 O    2.488770546033   -2.248764093734    2.486618006148
 O    2.656810546033   -3.134524093734    0.030568006148
 O    4.724650546033   -3.315384093734    1.630278006148
 O    2.860470546033   -4.805304093734    2.039588006148
 C    5.392460546033   -2.095544093734    1.247578006148
 H    5.069670546033   -1.261254093734    1.888228006148
 H    5.193330546033   -1.861294093734    0.191178006148
 H    6.463090546033   -2.276744093734    1.389698006148
 C    1.481200546033   -5.222624093734    2.096238006148
 H    1.027490546033   -5.195634093734    1.094168006148
 H    0.911830546033   -4.582864093734    2.787108006148
 H    1.489000546033   -6.252284093734    2.469498006148
LI    1.311270546033   -0.921194093734    2.306598006148
LI    1.550630546033   -2.108954093734   -0.914621993852
 P   -3.258233632066    3.449780600533   -1.584750823416
 O   -4.885281424790    3.485454667224   -1.708408326462
 O   -3.021102108768    4.975383350482   -2.117704022492
 O   -2.649394266697    2.418845079819   -2.564754523516
 O   -2.817452394924    3.304594100299   -0.108695565225
 C   -5.553089291278    2.265612863099   -1.325720668881
 H   -5.230294715660    1.431330258852   -1.966373685890
 H   -5.353958537649    2.031361173290   -0.269321529503
 H   -6.623721459757    2.446819316123   -1.467843135795
 C   -1.641836968356    5.392705979784   -2.174347048688
 H   -1.188133600857    5.365713830450   -1.172273804311
 H   -1.072459578282    4.752954325444   -2.865230061969
 H   -1.649637909548    6.422369825879   -2.547610999481
