28

 P    3.190100081976   -3.377641546775    1.551608195342
 O    2.581270081976   -2.346701546775    2.531608195342
 O    2.749310081976   -3.232461546775    0.075558195342
 O    4.817150081976   -3.413321546775    1.675268195342
 O    2.952970081976   -4.903241546775    2.084578195342
 C    5.484960081976   -2.193481546775    1.292568195342
 H    5.162170081976   -1.359191546775    1.933218195342
 H    5.285830081976   -1.959231546775    0.236168195342
 H    6.555590081976   -2.374681546775    1.434688195342
 C    1.573700081976   -5.320561546775    2.141228195342
 H    1.119990081976   -5.293571546775    1.139158195342
 H    1.004330081976   -4.680801546775    2.832098195342
 H    1.581500081976   -6.350221546775    2.514488195342
LI    1.403770081976   -1.019131546775    2.351588195342
LI    1.643130081976   -2.206891546775   -0.869631804658
 P   -3.361116770211    3.558712093086   -1.634791418787
 O   -4.988164562934    3.594386159778   -1.758448921832
 O   -3.123985246912    5.084314843036   -2.167744617862
 O   -2.752277404842    2.527776572373   -2.614795118886
 O   -2.920335533069    3.413525592853   -0.158736160596
 C   -5.655972429423    2.374544355653   -1.375761264252
 H   -5.333177853805    1.540261751405   -2.016414281261
 H   -5.456841675794    2.140292665843   -0.319362124873
 H   -6.726604597901    2.555750808677   -1.517883731166
 C   -1.744720106500    5.501637472338   -2.224387644058
 H   -1.291016739002    5.474645323003   -1.222314399682
 H   -1.175342716426    4.861885817997   -2.915270657340
 H   -1.752521047693    6.531301318432   -2.597651594852
