28

 P    3.251766439271   -3.442933182136    1.581601654805
 O    2.642936439271   -2.411993182136    2.561601654805
 O    2.810976439271   -3.297753182136    0.105551654805
 O    4.878816439271   -3.478613182136    1.705261654805
 O    3.014636439271   -4.968533182136    2.114571654805
 C    5.546626439271   -2.258773182136    1.322561654805
 H    5.223836439271   -1.424483182136    1.963211654805
 H    5.347496439271   -2.024523182136    0.266161654805
 H    6.617256439271   -2.439973182136    1.464681654805
 C    1.635366439271   -5.385853182136    2.171221654805
 H    1.181656439271   -5.358863182136    1.169151654805
 H    1.065996439271   -4.746093182136    2.862091654805
 H    1.643166439271   -6.415513182136    2.544481654805
LI    1.465436439271   -1.084423182136    2.381581654805
LI    1.704796439271   -2.272183182136   -0.839638345195
 P   -3.429705528974    3.631333088122   -1.668151815701
 O   -5.056753321697    3.667007154814   -1.791809318746
 O   -3.192574005675    5.156935838071   -2.201105014776
 O   -2.820866163605    2.600397567408   -2.648155515800
 O   -2.988924291832    3.486146587888   -0.192096557509
 C   -5.724561188186    2.447165350688   -1.409121661166
 H   -5.401766612568    1.612882746441   -2.049774678174
 H   -5.525430434557    2.212913660879   -0.352722521787
 H   -6.795193356664    2.628371803712   -1.551244128080
 C   -1.813308865263    5.574258467373   -2.257748040972
 H   -1.359605497765    5.547266318039   -1.255674796595
 H   -1.243931475189    4.934506813033   -2.948631054253
 H   -1.821109806456    6.603922313468   -2.631011991765
