28

 P    3.313432796566   -3.508224817496    1.611595114268
 O    2.704602796566   -2.477284817496    2.591595114268
 O    2.872642796566   -3.363044817496    0.135545114268
 O    4.940482796566   -3.543904817496    1.735255114268
 O    3.076302796566   -5.033824817496    2.144565114268
 C    5.608292796566   -2.324064817496    1.352555114268
 H    5.285502796566   -1.489774817496    1.993205114268
 H    5.409162796566   -2.089814817496    0.296155114268
 H    6.678922796566   -2.505264817496    1.494675114268
 C    1.697032796566   -5.451144817496    2.201215114268
 H    1.243322796566   -5.424154817496    1.199145114268
 H    1.127662796566   -4.811384817496    2.892085114268
 H    1.704832796566   -6.480804817496    2.574475114268
LI    1.527102796566   -1.149714817496    2.411575114268
LI    1.766462796566   -2.337474817496   -0.809644885732
 P   -3.498294287737    3.703954083157   -1.701512212614
 O   -5.125342080460    3.739628149849   -1.825169715659
 O   -3.261162764438    5.229556833107   -2.234465411689
 O   -2.889454922368    2.673018562444   -2.681515912714
 O   -3.057513050595    3.558767582924   -0.225456954423
 C   -5.793149946949    2.519786345724   -1.442482058079
 H   -5.470355371331    1.685503741477   -2.083135075088
 H   -5.594019193320    2.285534655915   -0.386082918700
 H   -6.863782115427    2.700992798748   -1.584604524993
 C   -1.881897624026    5.646879462409   -2.291108437885
 H   -1.428194256528    5.619887313074   -1.289035193509
 H   -1.312520233953    5.007127808068   -2.981991451167
 H   -1.889698565219    6.676543308504   -2.664372388679
