28

 P    3.405932332509   -3.606162270537    1.656585303463
 O    2.797102332509   -2.575222270537    2.636585303463
 O    2.965142332509   -3.460982270537    0.180535303463
 O    5.032982332509   -3.641842270537    1.780245303463
 O    3.168802332509   -5.131762270537    2.189555303463
 C    5.700792332509   -2.422002270537    1.397545303463
 H    5.378002332509   -1.587712270537    2.038195303463
 H    5.501662332509   -2.187752270537    0.341145303463
 H    6.771422332509   -2.603202270537    1.539665303463
 C    1.789532332509   -5.549082270537    2.246205303463
 H    1.335822332509   -5.522092270537    1.244135303463
 H    1.220162332509   -4.909322270537    2.937075303463
 H    1.797332332509   -6.578742270537    2.619465303463
LI    1.619602332509   -1.247652270537    2.456565303463
LI    1.858962332509   -2.435412270537   -0.764654696537
 P   -3.601177425882    3.812885575711   -1.751552807985
 O   -5.228225218605    3.848559642403   -1.875210311030
 O   -3.364045902583    5.338488325660   -2.284506007060
 O   -2.992338060513    2.781950054997   -2.731556508084
 O   -3.160396188740    3.667699075477   -0.275497549794
 C   -5.896033085094    2.628717838277   -1.492522653450
 H   -5.573238509476    1.794435234030   -2.133175670458
 H   -5.696902331464    2.394466148468   -0.436123514071
 H   -6.966665253572    2.809924291301   -1.634645120364
 C   -1.984780762171    5.755810954962   -2.341149033256
 H   -1.531077394673    5.728818805628   -1.339075788880
 H   -1.415403372097    5.116059300622   -3.032032046538
 H   -1.992581703364    6.785474801057   -2.714412984049
