28

 P    3.745097297633   -3.965266265021    1.821549330510
 O    3.136267297633   -2.934326265021    2.801549330510
 O    3.304307297633   -3.820086265021    0.345499330510
 O    5.372147297633   -4.000946265021    1.945209330510
 O    3.507967297633   -5.490866265021    2.354519330510
 C    6.039957297633   -2.781106265021    1.562509330510
 H    5.717167297633   -1.946816265021    2.203159330510
 H    5.840827297633   -2.546856265021    0.506109330510
 H    7.110587297633   -2.962306265021    1.704629330510
 C    2.128697297633   -5.908186265021    2.411169330510
 H    1.674987297633   -5.881196265021    1.409099330510
 H    1.559327297633   -5.268426265021    3.102039330510
 H    2.136497297633   -6.937846265021    2.784429330510
LI    1.958767297633   -1.606756265021    2.621529330510
LI    2.198127297633   -2.794516265021   -0.599690669490
 P   -3.978415599079    4.212301048407   -1.935034991010
 O   -5.605463391802    4.247975115099   -2.058692494055
 O   -3.741284075780    5.737903798356   -2.467988190085
 O   -3.369576233710    3.181365527693   -2.915038691109
 O   -3.537634361937    4.067114548173   -0.458979732819
 C   -6.273271258291    3.028133310973   -1.676004836475
 H   -5.950476682673    2.193850706726   -2.316657853483
 H   -6.074140504662    2.793881621164   -0.619605697096
 H   -7.343903426769    3.209339763997   -1.818127303389
 C   -2.362018935368    6.155226427658   -2.524631216281
 H   -1.908315567870    6.128234278324   -1.522557971905
 H   -1.792641545294    5.515474773318   -3.215514229563
 H   -2.369819876561    7.184890273753   -2.897895167074
