14

 N    0.444211296936    1.368363743575   -0.000612023013
 C   -0.641235645967    2.191122713403    0.002529848208
 H   -0.449714806085    3.266179685902    0.000025249666
 C    0.362347576254   -0.050906718151    0.000405645871
 O    1.406090823572   -0.704148608212   -0.002075195441
 N   -0.911490512427   -0.593046349744    0.011018880001
 C   -1.969176625240    0.208305681131    0.008525835173
 N   -3.201169741696   -0.395493347949   -0.036879988036
 H   -3.210104210017   -1.395187234460    0.132690620529
 H   -4.019747485899    0.130934971451    0.238020136761
 C   -1.900594626806    1.649682520326    0.005042401507
 H   -2.789118342491    2.281000111570   -0.004439552520
 H    1.388151419863    1.743011956017   -0.003917919241
 K    2.253757874438   -1.234673359268   -0.004089989256
