14

 N    0.422193486333    1.382143910538   -0.000559689555
 C   -0.663253456570    2.204902880366    0.002582181666
 H   -0.471732616688    3.279959852865    0.000077583124
 C    0.340329765651   -0.037126551188    0.000457979329
 O    1.384073012969   -0.690368441249   -0.002022861983
 N   -0.933508323030   -0.579266182781    0.011071213459
 C   -1.991194435843    0.222085848094    0.008578168631
 N   -3.223187552299   -0.381713180986   -0.036827654578
 H   -3.232122020620   -1.381407067497    0.132742953987
 H   -4.041765296502    0.144715138414    0.238072470219
 C   -1.922612437409    1.663462687289    0.005094734965
 H   -2.811136153094    2.294780278533   -0.004387219062
 H    1.366133609260    1.756792122980   -0.003865585783
 K    2.316506768921   -1.273945667411   -0.004239135179
