14

 N    0.378157865126    1.409704244462   -0.000455022637
 C   -0.707289077777    2.232463214290    0.002686848584
 H   -0.515768237895    3.307520186789    0.000182250042
 C    0.296294144444   -0.009566217264    0.000562646247
 O    1.340037391762   -0.662808107325   -0.001918195065
 N   -0.977543944237   -0.551705848857    0.011175880377
 C   -2.035230057050    0.249646182018    0.008682835549
 N   -3.267223173506   -0.354152847062   -0.036722987660
 H   -3.276157641827   -1.353846733573    0.132847620905
 H   -4.085800917709    0.172275472338    0.238177137137
 C   -1.966648058616    1.691023021213    0.005199401883
 H   -2.855171774301    2.322340612457   -0.004282552144
 H    1.322097988053    1.784352456904   -0.003760918865
 K    2.442004557887   -1.352490283698   -0.004537427024
