14

 N    0.312104433315    1.451044745348   -0.000298022261
 C   -0.773342509588    2.273803715176    0.002843848960
 H   -0.581821669706    3.348860687675    0.000339250418
 C    0.230240712633    0.031774283622    0.000719646623
 O    1.273983959951   -0.621467606439   -0.001761194689
 N   -1.043597376048   -0.510365347971    0.011332880753
 C   -2.101283488861    0.290986682904    0.008839835925
 N   -3.333276605317   -0.312812346176   -0.036565987284
 H   -3.342211073638   -1.312506232687    0.133004621281
 H   -4.151854349520    0.213615973224    0.238334137513
 C   -2.032701490427    1.732363522099    0.005356402259
 H   -2.921225206112    2.363681113343   -0.004125551768
 H    1.256044556242    1.825692957790   -0.003603918489
 K    2.630251241336   -1.470307208128   -0.004984864792
