14

 N    0.224033190901    1.506165413197   -0.000088688426
 C   -0.861413752002    2.328924383025    0.003053182795
 H   -0.669892912120    3.403981355524    0.000548584253
 C    0.142169470219    0.086894951471    0.000928980458
 O    1.185912717537   -0.566346938590   -0.001551860854
 N   -1.131668618462   -0.455244680122    0.011542214588
 C   -2.189354731275    0.346107350753    0.009049169760
 N   -3.421347847731   -0.257691678327   -0.036356653449
 H   -3.430282316052   -1.257385564838    0.133213955116
 H   -4.239925591934    0.268736641073    0.238543471348
 C   -2.120772732841    1.787484189948    0.005565736094
 H   -3.009296448526    2.418801781192   -0.003916217933
 H    1.167973313828    1.880813625639   -0.003394584654
 K    2.881246819267   -1.627396440702   -0.005581448483
