14

 N    0.202015380297    1.519945580159   -0.000036354967
 C   -0.883431562606    2.342704549987    0.003105516254
 H   -0.691910722724    3.417761522486    0.000600917712
 C    0.120151659615    0.100675118433    0.000981313917
 O    1.163894906933   -0.552566771628   -0.001499527395
 N   -1.153686429066   -0.441464513160    0.011594548047
 C   -2.211372541879    0.359887517715    0.009101503219
 N   -3.443365658335   -0.243911511365   -0.036304319990
 H   -3.452300126656   -1.243605397876    0.133266288575
 H   -4.261943402538    0.282516808035    0.238595804807
 C   -2.142790543445    1.801264356910    0.005618069553
 H   -3.031314259130    2.432581948154   -0.003863884474
 H    1.145955503224    1.894593792601   -0.003342251195
 K    2.943995713750   -1.666668748845   -0.005730594406
