14

 N    0.135961948486    1.561286081046    0.000120645409
 C   -0.949484994417    2.384045050874    0.003262516630
 H   -0.757964154535    3.459102023373    0.000757918088
 C    0.054098227804    0.142015619320    0.001138314293
 O    1.097841475122   -0.511226270741   -0.001342527019
 N   -1.219739860877   -0.400124012273    0.011751548423
 C   -2.277425973690    0.401228018602    0.009258503595
 N   -3.509419090146   -0.202571010478   -0.036147319614
 H   -3.518353558467   -1.202264896989    0.133423288951
 H   -4.327996834349    0.323857308922    0.238752805183
 C   -2.208843975256    1.842604857797    0.005775069929
 H   -3.097367690941    2.473922449041   -0.003706884098
 H    1.079902071413    1.935934293488   -0.003185250819
 K    3.132242397199   -1.784485673276   -0.006178032174
