14

 N    0.113944137883    1.575066248008    0.000172978867
 C   -0.971502805020    2.397825217836    0.003314850088
 H   -0.779981965138    3.472882190335    0.000810251546
 C    0.032080417201    0.155795786282    0.001190647751
 O    1.075823664519   -0.497446103779   -0.001290193561
 N   -1.241757671480   -0.386343845311    0.011803881881
 C   -2.299443784293    0.415008185564    0.009310837053
 N   -3.531436900749   -0.188790843516   -0.036094986156
 H   -3.540371369070   -1.188484730027    0.133475622409
 H   -4.350014644952    0.337637475884    0.238805138641
 C   -2.230861785859    1.856385024759    0.005827403387
 H   -3.119385501544    2.487702616003   -0.003654550640
 H    1.057884260810    1.949714460450   -0.003132917361
 K    3.194991291682   -1.823757981419   -0.006327178097
