14

 N    0.091926327279    1.588846414970    0.000225312326
 C   -0.993520615624    2.411605384798    0.003367183547
 H   -0.801999775742    3.486662357297    0.000862585005
 C    0.010062606597    0.169575953244    0.001242981210
 O    1.053805853915   -0.483665936817   -0.001237860102
 N   -1.263775482084   -0.372563678349    0.011856215340
 C   -2.321461594897    0.428788352526    0.009363170512
 N   -3.553454711353   -0.175010676554   -0.036042652697
 H   -3.562389179674   -1.174704563065    0.133527955868
 H   -4.372032455556    0.351417642846    0.238857472100
 C   -2.252879596463    1.870165191721    0.005879736846
 H   -3.141403312148    2.501482782965   -0.003602217181
 H    1.035866450206    1.963494627412   -0.003080583902
 K    3.257740186165   -1.863030289563   -0.006476324019
