14

 N    0.069908516676    1.602626581932    0.000277645785
 C   -1.015538426227    2.425385551760    0.003419517006
 H   -0.824017586345    3.500442524259    0.000914918464
 C   -0.011955204006    0.183356120206    0.001295314669
 O    1.031788043312   -0.469885769855   -0.001185526643
 N   -1.285793292687   -0.358783511387    0.011908548799
 C   -2.343479405500    0.442568519488    0.009415503971
 N   -3.575472521956   -0.161230509592   -0.035990319238
 H   -3.584406990277   -1.160924396103    0.133580289327
 H   -4.394050266159    0.365197809808    0.238909805559
 C   -2.274897407066    1.883945358683    0.005932070305
 H   -3.163421122751    2.515262949927   -0.003549883722
 H    1.013848639603    1.977274794374   -0.003028250443
 K    3.320489080648   -1.902302597706   -0.006625469942
