14

 N    0.047890706072    1.616406748894    0.000329979244
 C   -1.037556236831    2.439165718722    0.003471850465
 H   -0.846035396949    3.514222691221    0.000967251923
 C   -0.033973014610    0.197136287168    0.001347648128
 O    1.009770232708   -0.456105602893   -0.001133193184
 N   -1.307811103291   -0.345003344425    0.011960882258
 C   -2.365497216104    0.456348686450    0.009467837430
 N   -3.597490332560   -0.147450342630   -0.035937985779
 H   -3.606424800881   -1.147144229141    0.133632622786
 H   -4.416068076763    0.378977976770    0.238962139018
 C   -2.296915217670    1.897725525645    0.005984403764
 H   -3.185438933355    2.529043116889   -0.003497550263
 H    0.991830828999    1.991054961336   -0.002975916984
 K    3.383237975131   -1.941574905849   -0.006774615865
