14

 N   -0.106233968153    1.712867917629    0.000696313455
 C   -1.191680911056    2.535626887457    0.003838184676
 H   -1.000160071174    3.610683859956    0.001333586134
 C   -0.188097688835    0.293597455903    0.001713982339
 O    0.855645558483   -0.359644434158   -0.000766858973
 N   -1.461935777516   -0.248542175690    0.012327216469
 C   -2.519621890329    0.552809855185    0.009834171641
 N   -3.751615006785   -0.050989173895   -0.035571651568
 H   -3.760549475106   -1.050683060406    0.133998956997
 H   -4.570192750988    0.475439145505    0.239328473229
 C   -2.451039891895    1.994186694380    0.006350737975
 H   -3.339563607580    2.625504285624   -0.003131216052
 H    0.837706154774    2.087516130071   -0.002609582773
 K    3.822480236512   -2.216481062853   -0.007818637324
