14

 N   -0.194305210567    1.767988585478    0.000905647290
 C   -1.279752153470    2.590747555306    0.004047518511
 H   -1.088231313588    3.665804527805    0.001542919969
 C   -0.276168931249    0.348718123752    0.001923316174
 O    0.767574316069   -0.304523766309   -0.000557525138
 N   -1.550007019930   -0.193421507841    0.012536550304
 C   -2.607693132743    0.607930523034    0.010043505476
 N   -3.839686249199    0.004131493954   -0.035362317733
 H   -3.848620717520   -0.995562392557    0.134208290832
 H   -4.658263993402    0.530559813354    0.239537807064
 C   -2.539111134309    2.049307362229    0.006560071810
 H   -3.427634849994    2.680624953473   -0.002921882217
 H    0.749634912360    2.142636797920   -0.002400248938
 K    4.073475814444   -2.373570295427   -0.008415221015
