14

 N   -0.238340831774    1.795548919402    0.001010314207
 C   -1.323787774677    2.618307889230    0.004152185428
 H   -1.132266934795    3.693364861729    0.001647586886
 C   -0.320204552456    0.376278457676    0.002027983091
 O    0.723538694862   -0.276963432385   -0.000452858221
 N   -1.594042641137   -0.165861173917    0.012641217221
 C   -2.651728753950    0.635490856958    0.010148172393
 N   -3.883721870406    0.031691827878   -0.035257650816
 H   -3.892656338727   -0.968002058633    0.134312957749
 H   -4.702299614609    0.558120147278    0.239642473981
 C   -2.583146755516    2.076867696153    0.006664738727
 H   -3.471670471201    2.708185287397   -0.002817215300
 H    0.705599291153    2.170197131844   -0.002295582021
 K    4.198973603410   -2.452114911714   -0.008713512860
