14

 N   -0.326412074188    1.850669587251    0.001219648042
 C   -1.411859017091    2.673428557079    0.004361519263
 H   -1.220338177209    3.748485529578    0.001856920721
 C   -0.408275794870    0.431399125525    0.002237316926
 O    0.635467452448   -0.221842764536   -0.000243524386
 N   -1.682113883551   -0.110740506068    0.012850551056
 C   -2.739799996364    0.690611524807    0.010357506228
 N   -3.971793112820    0.086812495727   -0.035048316981
 H   -3.980727581141   -0.912881390784    0.134522291584
 H   -4.790370857023    0.613240815127    0.239851807816
 C   -2.671217997930    2.131988364002    0.006874072562
 H   -3.559741713615    2.763305955246   -0.002607881465
 H    0.617528048739    2.225317799693   -0.002086248186
 K    4.449969181342   -2.609204144288   -0.009310096551
