14

 N   -0.370447695395    1.878229921175    0.001324314959
 C   -1.455894638298    2.700988891003    0.004466186180
 H   -1.264373798416    3.776045863502    0.001961587638
 C   -0.452311416077    0.458959459449    0.002341983843
 O    0.591431831241   -0.194282430612   -0.000138857469
 N   -1.726149504758   -0.083180172144    0.012955217973
 C   -2.783835617571    0.718171858731    0.010462173145
 N   -4.015828734027    0.114372829651   -0.034943650064
 H   -4.024763202348   -0.885321056860    0.134626958501
 H   -4.834406478230    0.640801149051    0.239956474733
 C   -2.715253619137    2.159548697926    0.006978739479
 H   -3.603777334822    2.790866289170   -0.002503214548
 H    0.573492427532    2.252878133617   -0.001981581269
 K    4.575466970308   -2.687748760575   -0.009608388397
