14

 N   -0.414483316602    1.905790255100    0.001428981877
 C   -1.499930259505    2.728549224928    0.004570853098
 H   -1.308409419623    3.803606197427    0.002066254556
 C   -0.496347037284    0.486519793374    0.002446650761
 O    0.547396210034   -0.166722096687   -0.000034190551
 N   -1.770185125965   -0.055619838219    0.013059884891
 C   -2.827871238778    0.745732192656    0.010566840063
 N   -4.059864355234    0.141933163576   -0.034838983146
 H   -4.068798823555   -0.857760722935    0.134731625419
 H   -4.878442099437    0.668361482976    0.240061141651
 C   -2.759289240344    2.187109031851    0.007083406397
 H   -3.647812956029    2.818426623095   -0.002398547630
 H    0.529456806325    2.280438467542   -0.001876914351
 K    4.700964759274   -2.766293376862   -0.009906680242
