14

 N   -0.480536748413    1.947130755986    0.001585982253
 C   -1.565983691316    2.769889725814    0.004727853474
 H   -1.374462851434    3.844946698313    0.002223254932
 C   -0.562400469095    0.527860294260    0.002603651137
 O    0.481342778223   -0.125381595801    0.000122809825
 N   -1.836238557776   -0.014279337333    0.013216885267
 C   -2.893924670589    0.787072693542    0.010723840439
 N   -4.125917787045    0.183273664462   -0.034681982770
 H   -4.134852255366   -0.816420222049    0.134888625795
 H   -4.944495531248    0.709701983862    0.240218142027
 C   -2.825342672155    2.228449532737    0.007240406773
 H   -3.713866387840    2.859767123981   -0.002241547254
 H    0.463403374514    2.321778968428   -0.001719913975
 K    4.889211442723   -2.884110301292   -0.010354118010
