14

 N   -0.502554559017    1.960910922948    0.001638315712
 C   -1.588001501920    2.783669892776    0.004780186933
 H   -1.396480662038    3.858726865275    0.002275588391
 C   -0.584418279699    0.541640461222    0.002655984596
 O    0.459324967619   -0.111601428839    0.000175143284
 N   -1.858256368380   -0.000499170371    0.013269218726
 C   -2.915942481193    0.800852860504    0.010776173898
 N   -4.147935597649    0.197053831424   -0.034629649311
 H   -4.156870065970   -0.802640055087    0.134940959254
 H   -4.966513341852    0.723482150824    0.240270475486
 C   -2.847360482759    2.242229699699    0.007292740232
 H   -3.735884198444    2.873547290943   -0.002189213795
 H    0.441385563910    2.335559135390   -0.001667580516
 K    4.951960337206   -2.923382609435   -0.010503263933
