14

 N   -0.590625801431    2.016031590797    0.001847649546
 C   -1.676072744334    2.838790560625    0.004989520767
 H   -1.484551904452    3.913847533124    0.002484922225
 C   -0.672489522113    0.596761129071    0.002865318430
 O    0.371253725205   -0.056480760990    0.000384477118
 N   -1.946327610794    0.054621497478    0.013478552560
 C   -3.004013723607    0.855973528353    0.010985507732
 N   -4.236006840063    0.252174499273   -0.034420315477
 H   -4.244941308384   -0.747519387238    0.135150293088
 H   -5.054584584266    0.778602818673    0.240479809320
 C   -2.935431725173    2.297350367548    0.007502074066
 H   -3.823955440858    2.928667958792   -0.001979879961
 H    0.353314321496    2.390679803239   -0.001458246682
 K    5.202955915138   -3.080471842009   -0.011099847624
