14

 N   -0.810803907466    2.153833260419    0.002370984134
 C   -1.896250850369    2.976592230247    0.005512855355
 H   -1.704730010487    4.051649202746    0.003008256813
 C   -0.892667628148    0.734562798693    0.003388653018
 O    0.151075619170    0.081320908632    0.000907811706
 N   -2.166505716829    0.192423167100    0.014001887148
 C   -3.224191829642    0.993775197975    0.011508842320
 N   -4.456184946098    0.389976168895   -0.033896980889
 H   -4.465119414419   -0.609717717616    0.135673627676
 H   -5.274762690301    0.916404488295    0.241003143908
 C   -3.155609831208    2.435152037170    0.008025408654
 H   -4.044133546893    3.066469628414   -0.001456545373
 H    0.133136215461    2.528481472861   -0.000934912094
 K    5.830444859968   -3.473194923444   -0.012591306851
