14

 N   -0.832821718070    2.167613427381    0.002423317592
 C   -1.918268660973    2.990372397209    0.005565188813
 H   -1.726747821091    4.065429369708    0.003060590271
 C   -0.914685438752    0.748342965655    0.003440986476
 O    0.129057808566    0.095101075594    0.000960145164
 N   -2.188523527433    0.206203334062    0.014054220606
 C   -3.246209640246    1.007555364937    0.011561175778
 N   -4.478202756702    0.403756335857   -0.033844647431
 H   -4.487137225023   -0.595937550654    0.135725961134
 H   -5.296780500905    0.930184655257    0.241055477366
 C   -3.177627641812    2.448932204132    0.008077742112
 H   -4.066151357497    3.080249795376   -0.001404211915
 H    0.111118404857    2.542261639823   -0.000882578636
 K    5.893193754451   -3.512467231587   -0.012740452774
