14

 N   -0.854839528673    2.181393594343    0.002475651051
 C   -1.940286471576    3.004152564171    0.005617522272
 H   -1.748765631694    4.079209536670    0.003112923730
 C   -0.936703249355    0.762123132617    0.003493319935
 O    0.107039997963    0.108881242556    0.001012478623
 N   -2.210541338036    0.219983501024    0.014106554065
 C   -3.268227450849    1.021335531899    0.011613509237
 N   -4.500220567305    0.417536502819   -0.033792313972
 H   -4.509155035626   -0.582157383692    0.135778294593
 H   -5.318798311508    0.943964822219    0.241107810825
 C   -3.199645452415    2.462712371094    0.008130075571
 H   -4.088169168100    3.094029962338   -0.001351878456
 H    0.089100594254    2.556041806785   -0.000830245177
 K    5.955942648934   -3.551739539730   -0.012889598697
