14

 N   -0.898875149881    2.208953928267    0.002580317968
 C   -1.984322092784    3.031712898095    0.005722189189
 H   -1.792801252902    4.106769870594    0.003217590647
 C   -0.980738870563    0.789683466541    0.003597986852
 O    0.063004376755    0.136441576480    0.001117145540
 N   -2.254576959244    0.247543834948    0.014211220982
 C   -3.312263072057    1.048895865823    0.011718176154
 N   -4.544256188513    0.445096836743   -0.033687647055
 H   -4.553190656834   -0.554597049768    0.135882961510
 H   -5.362833932716    0.971525156143    0.241212477742
 C   -3.243681073623    2.490272705018    0.008234742488
 H   -4.132204789308    3.121590296262   -0.001247211539
 H    0.045064973046    2.583602140709   -0.000725578260
 K    6.081440437900   -3.630284156017   -0.013187890542
