14

 N   -1.008964202898    2.277854763078    0.002841985262
 C   -2.094411145801    3.100613732906    0.005983856483
 H   -1.902890305919    4.175670705405    0.003479257941
 C   -1.090827923580    0.858584301352    0.003859654146
 O   -0.047084676262    0.205342411291    0.001378812834
 N   -2.364666012261    0.316444669759    0.014472888276
 C   -3.422352125074    1.117796700634    0.011979843448
 N   -4.654345241530    0.513997671554   -0.033425979761
 H   -4.663279709851   -0.485696214957    0.136144628804
 H   -5.472922985733    1.040425990954    0.241474145036
 C   -3.353770126640    2.559173539829    0.008496409782
 H   -4.242293842325    3.190491131073   -0.000985544245
 H   -0.065024079971    2.652502975520   -0.000463910966
 K    6.395184910315   -3.826645696734   -0.013933620156
