14

 N   -1.030982013502    2.291634930040    0.002894318721
 C   -2.116428956405    3.114393899868    0.006036189942
 H   -1.924908116523    4.189450872367    0.003531591400
 C   -1.112845734184    0.872364468314    0.003911987605
 O   -0.069102486866    0.219122578253    0.001431146293
 N   -2.386683822865    0.330224836721    0.014525221735
 C   -3.444369935678    1.131576867596    0.012032176907
 N   -4.676363052134    0.527777838516   -0.033373646302
 H   -4.685297520455   -0.471916047995    0.136196962263
 H   -5.494940796337    1.054206157916    0.241526478495
 C   -3.375787937244    2.572953706791    0.008548743241
 H   -4.264311652929    3.204271298035   -0.000933210786
 H   -0.087041890575    2.666283142482   -0.000411577507
 K    6.457933804798   -3.865918004878   -0.014082766079
