14

 N   -1.097035445313    2.332975430927    0.003051319097
 C   -2.182482388216    3.155734400755    0.006193190318
 H   -1.990961548334    4.230791373254    0.003688591776
 C   -1.178899165995    0.913704969201    0.004068987981
 O   -0.135155918677    0.260463079140    0.001588146669
 N   -2.452737254676    0.371565337608    0.014682222111
 C   -3.510423367489    1.172917368483    0.012189177283
 N   -4.742416483945    0.569118339403   -0.033216645926
 H   -4.751350952266   -0.430575547108    0.136353962639
 H   -5.560994228148    1.095546658803    0.241683478871
 C   -3.441841369055    2.614294207678    0.008705743617
 H   -4.330365084740    3.245611798922   -0.000776210410
 H   -0.153095322386    2.707623643369   -0.000254577131
 K    6.646180488247   -3.983734929308   -0.014530203847
