14

 N   -1.163088877123    2.374315931813    0.003208319473
 C   -2.248535820026    3.197074901641    0.006350190694
 H   -2.057014980144    4.272131874140    0.003845592152
 C   -1.244952597805    0.955045470087    0.004225988357
 O   -0.201209350487    0.301803580026    0.001745147045
 N   -2.518790686486    0.412905838494    0.014839222487
 C   -3.576476799299    1.214257869369    0.012346177659
 N   -4.808469915755    0.610458840289   -0.033059645550
 H   -4.817404384076   -0.389235046222    0.136510963015
 H   -5.627047659958    1.136887159689    0.241840479247
 C   -3.507894800865    2.655634708564    0.008862743993
 H   -4.396418516550    3.286952299808   -0.000619210034
 H   -0.219148754196    2.748964144255   -0.000097576755
 K    6.834427171696   -4.101551853739   -0.014977641615
