14

 N   -1.229142308934    2.415656432700    0.003365319849
 C   -2.314589251837    3.238415402528    0.006507191070
 H   -2.123068411955    4.313472375027    0.004002592528
 C   -1.311006029616    0.996385970974    0.004382988733
 O   -0.267262782298    0.343144080913    0.001902147421
 N   -2.584844118297    0.454246339381    0.014996222863
 C   -3.642530231110    1.255598370256    0.012503178035
 N   -4.874523347566    0.651799341176   -0.032902645174
 H   -4.883457815887   -0.347894545335    0.136667963391
 H   -5.693101091769    1.178227660576    0.241997479623
 C   -3.573948232676    2.696975209451    0.009019744369
 H   -4.462471948361    3.328292800695   -0.000462209658
 H   -0.285202186007    2.790304645142    0.000059423621
 K    7.022673855145   -4.219368778169   -0.015425079383
