14

 N   -1.339231361952    2.484557267510    0.003626987143
 C   -2.424678304855    3.307316237338    0.006768858364
 H   -2.233157464973    4.382373209837    0.004264259822
 C   -1.421095082634    1.065286805784    0.004644656027
 O   -0.377351835316    0.412044915723    0.002163814715
 N   -2.694933171315    0.523147174191    0.015257890157
 C   -3.752619284128    1.324499205066    0.012764845329
 N   -4.984612400584    0.720700175986   -0.032640977880
 H   -4.993546868905   -0.278993710525    0.136929630685
 H   -5.803190144787    1.247128495386    0.242259146917
 C   -3.684037285694    2.765876044261    0.009281411663
 H   -4.572561001379    3.397193635505   -0.000200542364
 H   -0.395291239025    2.859205479952    0.000321090915
 K    7.336418327560   -4.415730318886   -0.016170808997
