14

 N   -1.405284793762    2.525897768397    0.003783987519
 C   -2.490731736665    3.348656738225    0.006925858740
 H   -2.299210896783    4.423713710724    0.004421260198
 C   -1.487148514444    1.106627306671    0.004801656403
 O   -0.443405267126    0.453385416610    0.002320815091
 N   -2.760986603125    0.564487675078    0.015414890533
 C   -3.818672715938    1.365839705953    0.012921845705
 N   -5.050665832394    0.762040676873   -0.032483977504
 H   -5.059600300715   -0.237653209638    0.137086631061
 H   -5.869243576597    1.288468996273    0.242416147293
 C   -3.750090717504    2.807216545148    0.009438412039
 H   -4.638614433189    3.438534136392   -0.000043541988
 H   -0.461344670835    2.900545980839    0.000478091291
 K    7.524665011009   -4.533547243316   -0.016618246765
