14

 N   -1.449320414969    2.553458102321    0.003888654436
 C   -2.534767357872    3.376217072149    0.007030525657
 H   -2.343246517990    4.451274044648    0.004525927115
 C   -1.531184135651    1.134187640595    0.004906323320
 O   -0.487440888333    0.480945750534    0.002425482008
 N   -2.805022224332    0.592048009002    0.015519557450
 C   -3.862708337145    1.393400039877    0.013026512622
 N   -5.094701453601    0.789601010797   -0.032379310587
 H   -5.103635921922   -0.210092875714    0.137191297978
 H   -5.913279197804    1.316029330197    0.242520814210
 C   -3.794126338711    2.834776879072    0.009543078956
 H   -4.682650054396    3.466094470316    0.000061124929
 H   -0.505380292042    2.928106314763    0.000582758208
 K    7.650162799975   -4.612091859603   -0.016916538611
