14

 N   -1.493356036176    2.581018436246    0.003993321354
 C   -2.578802979079    3.403777406074    0.007135192575
 H   -2.387282139197    4.478834378573    0.004630594033
 C   -1.575219756858    1.161747974520    0.005010990238
 O   -0.531476509540    0.508506084459    0.002530148926
 N   -2.849057845539    0.619608342927    0.015624224368
 C   -3.906743958352    1.420960373802    0.013131179540
 N   -5.138737074808    0.817161344722   -0.032274643669
 H   -5.147671543129   -0.182532541789    0.137295964896
 H   -5.957314819011    1.343589664122    0.242625481128
 C   -3.838161959918    2.862337212997    0.009647745874
 H   -4.726685675603    3.493654804241    0.000165791847
 H   -0.549415913249    2.955666648688    0.000687425126
 K    7.775660588941   -4.690636475890   -0.017214830456
