14

 N   -1.515373846780    2.594798603208    0.004045654813
 C   -2.600820789683    3.417557573036    0.007187526034
 H   -2.409299949801    4.492614545535    0.004682927492
 C   -1.597237567462    1.175528141482    0.005063323697
 O   -0.553494320144    0.522286251421    0.002582482385
 N   -2.871075656143    0.633388509889    0.015676557827
 C   -3.928761768956    1.434740540764    0.013183512999
 N   -5.160754885412    0.830941511684   -0.032222310210
 H   -5.169689353733   -0.168752374827    0.137348298355
 H   -5.979332629615    1.357369831084    0.242677814587
 C   -3.860179770522    2.876117379959    0.009700079333
 H   -4.748703486207    3.507434971203    0.000218125306
 H   -0.571433723853    2.969446815650    0.000739758585
 K    7.838409483424   -4.729908784034   -0.017363976379
