17

 N   -1.802935858846   -3.265652262460   -0.002940550313
 C   -0.592747792002   -2.610446058784    0.001021073655
 N    0.640664622301   -3.209123753246    0.013059358560
 C    1.611087822357   -2.318947611635    0.001186901587
 N    1.408010984944   -0.957309478121   -0.005648258755
 H    2.211838110195   -0.337348938366   -0.087636281177
 N    2.936542576594   -2.737622333315   -0.077160401648
 H    3.591078781926   -2.205819108915    0.490480375082
 H    3.015347663985   -3.738322477250    0.084422936341
 C    0.148737242627   -0.271275774590    0.007305527922
 O    0.121156873522    0.956897310187    0.003217399494
 C   -0.924047883349   -1.244969163864    0.013506725862
 N   -2.295121185118   -1.058638118551    0.013431541146
 C   -2.788644679629   -2.297241132596    0.003101441481
 H   -3.846142592897   -2.551387754428    0.000154797055
 H   -1.928032855377   -4.272235347692   -0.011600101344
CS    0.098706239211    1.956639724500   -0.000110368746
