17

 N   -1.801885053912   -3.312445339569   -0.002784793677
 C   -0.591696987068   -2.657239135893    0.001176830291
 N    0.641715427235   -3.255916830355    0.013215115196
 C    1.612138627291   -2.365740688744    0.001342658223
 N    1.409061789878   -1.004102555230   -0.005492502119
 H    2.212888915129   -0.384142015475   -0.087480524541
 N    2.937593381528   -2.784415410424   -0.077004645012
 H    3.592129586860   -2.252612186024    0.490636131718
 H    3.016398468919   -3.785115554359    0.084578692977
 C    0.149788047561   -0.318068851699    0.007461284558
 O    0.122207678456    0.910104233078    0.003373156130
 C   -0.922997078415   -1.291762240973    0.013662482498
 N   -2.294070380184   -1.105431195660    0.013587297782
 C   -2.787593874695   -2.344034209705    0.003257198117
 H   -3.845091787963   -2.598180831537    0.000310553691
 H   -1.926982050443   -4.319028424801   -0.011444344708
CS    0.097511980715    2.009820888823   -0.000287388934
