17

 N   -1.798732639107   -3.452824570895   -0.002317523767
 C   -0.588544572263   -2.797618367219    0.001644100201
 N    0.644867842040   -3.396296061681    0.013682385106
 C    1.615291042096   -2.506119920070    0.001809928133
 N    1.412214204683   -1.144481786556   -0.005025232209
 H    2.216041329934   -0.524521246801   -0.087013254631
 N    2.940745796333   -2.924794641750   -0.076537375102
 H    3.595282001665   -2.392991417350    0.491103401628
 H    3.019550883724   -3.925494785685    0.085045962887
 C    0.152940462366   -0.458448083025    0.007928554468
 O    0.125360093261    0.769725001752    0.003840426040
 C   -0.919844663610   -1.432141472299    0.014129752408
 N   -2.290917965379   -1.245810426986    0.014054567692
 C   -2.784441459890   -2.484413441031    0.003724468027
 H   -3.841939373158   -2.738560062863    0.000777823601
 H   -1.923829635638   -4.459407656127   -0.010977074798
CS    0.093929205226    2.169364381791   -0.000818449496
