17

 N   -1.797681834173   -3.499617648004   -0.002161767131
 C   -0.587493767329   -2.844411444328    0.001799856837
 N    0.645918646974   -3.443089138789    0.013838141742
 C    1.616341847030   -2.552912997179    0.001965684769
 N    1.413265009617   -1.191274863665   -0.004869475573
 H    2.217092134868   -0.571314323910   -0.086857497995
 N    2.941796601267   -2.971587718859   -0.076381618466
 H    3.596332806599   -2.439784494458    0.491259158264
 H    3.020601688658   -3.972287862794    0.085201719523
 C    0.153991267300   -0.505241160134    0.008084311104
 O    0.126410898195    0.722931924643    0.003996182676
 C   -0.918793858676   -1.478934549407    0.014285509044
 N   -2.289867160445   -1.292603504095    0.014210324328
 C   -2.783390654956   -2.531206518140    0.003880224663
 H   -3.840888568224   -2.785353139972    0.000933580237
 H   -1.922778830704   -4.506200733235   -0.010821318162
CS    0.092734946729    2.222545546114   -0.000995469683
