17

 N   -1.708363414718   -7.477029202239    0.011077546974
 C   -0.498175347874   -6.821822998563    0.015039170942
 N    0.735237066429   -7.420500693025    0.027077455847
 C    1.705660266485   -6.530324551414    0.015204998874
 N    1.502583429072   -5.168686417900    0.008369838532
 H    2.306410554323   -4.548725878145   -0.073618183890
 N    3.031115020722   -6.948999273094   -0.063142304361
 H    3.685651226054   -6.417196048694    0.504498472369
 H    3.109920108113   -7.949699417029    0.098441033628
 C    0.243309686755   -4.482652714369    0.021323625209
 O    0.215729317650   -3.254479629592    0.017235496781
 C   -0.829475439221   -5.456346103643    0.027524823149
 N   -2.200548740990   -5.270015058330    0.027449638433
 C   -2.694072235501   -6.508618072375    0.017119538768
 H   -3.751570148769   -6.762764694207    0.014172894342
 H   -1.833460411249   -8.483612287471    0.002417995943
CS   -0.008777025458    6.742944513544   -0.016042185618
