17

 N   -1.792427809499   -3.733583033547   -0.001382983948
 C   -0.582239742655   -3.078376829871    0.002578640020
 N    0.651172671648   -3.677054524333    0.014616924925
 C    1.621595871704   -2.786878382722    0.002744467952
 N    1.418519034291   -1.425240249208   -0.004090692390
 H    2.222346159542   -0.805279709453   -0.086078714812
 N    2.947050625941   -3.205553104402   -0.075602835283
 H    3.601586831273   -2.673749880002    0.492037941447
 H    3.025855713332   -4.206253248337    0.085980502706
 C    0.159245291974   -0.739206545677    0.008863094287
 O    0.131664922869    0.488966539100    0.004774965859
 C   -0.913539834002   -1.712899934951    0.015064292227
 N   -2.284613135771   -1.526568889638    0.014989107511
 C   -2.778136630282   -2.765171903683    0.004659007846
 H   -3.835634543550   -3.019318525515    0.001712363420
 H   -1.917524806030   -4.740166118779   -0.010042534979
CS    0.086763654248    2.488451367727   -0.001880570621
