17

 N   -1.789275394694   -3.873962264873   -0.000915714038
 C   -0.579087327850   -3.218756061197    0.003045909930
 N    0.654325086453   -3.817433755659    0.015084194835
 C    1.624748286509   -2.927257614048    0.003211737862
 N    1.421671449096   -1.565619480534   -0.003623422480
 H    2.225498574347   -0.945658940779   -0.085611444902
 N    2.950203040746   -3.345932335728   -0.075135565373
 H    3.604739246078   -2.814129111328    0.492505211357
 H    3.029008128137   -4.346632479663    0.086447772616
 C    0.162397706779   -0.879585777003    0.009330364197
 O    0.134817337674    0.348587307774    0.005242235769
 C   -0.910387419197   -1.853279166277    0.015531562137
 N   -2.281460720966   -1.666948120964    0.015456377421
 C   -2.774984215477   -2.905551135009    0.005126277756
 H   -3.832482128745   -3.159697756841    0.002179633330
 H   -1.914372391225   -4.880545350105   -0.009575265069
CS    0.083180878759    2.647994860696   -0.002411631183
