17

 N   -1.782970565086   -4.154720727525    0.000018825781
 C   -0.572782498242   -3.499514523849    0.003980449749
 N    0.660629916061   -4.098192218311    0.016018734654
 C    1.631053116117   -3.208016076700    0.004146277681
 N    1.427976278704   -1.846377943186   -0.002688882661
 H    2.231803403955   -1.226417403431   -0.084676905083
 N    2.956507870354   -3.626690798380   -0.074201025554
 H    3.611044075686   -3.094887573980    0.493439751176
 H    3.035312957745   -4.627390942315    0.087382312435
 C    0.168702536387   -1.160344239655    0.010264904016
 O    0.141122167282    0.067828845122    0.006176775588
 C   -0.904082589589   -2.134037628929    0.016466101956
 N   -2.275155891358   -1.947706583616    0.016390917240
 C   -2.768679385869   -3.186309597661    0.006060817575
 H   -3.826177299137   -3.440456219493    0.003114173149
 H   -1.908067561617   -5.161303812757   -0.008640725250
CS    0.076015327781    2.967081846632   -0.003473752308
