17

 N   -1.776665735477   -4.435479190177    0.000953365600
 C   -0.566477668633   -3.780272986501    0.004914989568
 N    0.666934745670   -4.378950680963    0.016953274473
 C    1.637357945726   -3.488774539352    0.005080817500
 N    1.434281108313   -2.127136405838   -0.001754342842
 H    2.238108233564   -1.507175866083   -0.083742365264
 N    2.962812699963   -3.907449261032   -0.073266485735
 H    3.617348905295   -3.375646036632    0.494374290995
 H    3.041617787354   -4.908149404967    0.088316852254
 C    0.175007365996   -1.441102702307    0.011199443835
 O    0.147426996891   -0.212929617530    0.007111315407
 C   -0.897777759980   -2.414796091581    0.017400641775
 N   -2.268851061749   -2.228465046268    0.017325457059
 C   -2.762374556260   -3.467068060313    0.006995357394
 H   -3.819872469528   -3.721214682145    0.004048712968
 H   -1.901762732008   -5.442062275409   -0.007706185431
CS    0.068849776803    3.286168832568   -0.004535873433
