17

 N   -1.773513320673   -4.575858421502    0.001420635510
 C   -0.563325253829   -3.920652217826    0.005382259478
 N    0.670087160474   -4.519329912288    0.017420544383
 C    1.640510360530   -3.629153770677    0.005548087410
 N    1.437433523117   -2.267515637163   -0.001287072932
 H    2.241260648368   -1.647555097408   -0.083275095354
 N    2.965965114767   -4.047828492357   -0.072799215825
 H    3.620501320099   -3.516025267957    0.494841560905
 H    3.044770202158   -5.048528636292    0.088784122164
 C    0.178159780800   -1.581481933632    0.011666713745
 O    0.150579411695   -0.353308848855    0.007578585317
 C   -0.894625345176   -2.555175322906    0.017867911685
 N   -2.265698646945   -2.368844277593    0.017792726969
 C   -2.759222141456   -3.607447291638    0.007462627304
 H   -3.816720054724   -3.861593913470    0.004515982878
 H   -1.898610317204   -5.582441506734   -0.007238915521
CS    0.065267001314    3.445712325536   -0.005066933995
