17

 N   -1.771411710804   -4.669444575720    0.001732148783
 C   -0.561223643960   -4.014238372044    0.005693772751
 N    0.672188770343   -4.612916066506    0.017732057656
 C    1.642611970399   -3.722739924895    0.005859600683
 N    1.439535132986   -2.361101791381   -0.000975559659
 H    2.243362258237   -1.741141251626   -0.082963582081
 N    2.968066724636   -4.141414646575   -0.072487702552
 H    3.622602929968   -3.609611422175    0.495153074178
 H    3.046871812027   -5.142114790510    0.089095635437
 C    0.180261390669   -1.675068087850    0.011978227018
 O    0.152681021564   -0.446895003073    0.007890098590
 C   -0.892523735307   -2.648761477124    0.018179424958
 N   -2.263597037076   -2.462430431811    0.018104240242
 C   -2.757120531587   -3.701033445856    0.007774140577
 H   -3.814618444855   -3.955180067688    0.004827496151
 H   -1.896508707335   -5.676027660952   -0.006927402248
CS    0.062878484321    3.552074654182   -0.005420974370
