17

 N   -1.770360905869   -4.716237652828    0.001887905419
 C   -0.560172839025   -4.061031449152    0.005849529387
 N    0.673239575278   -4.659709143614    0.017887814292
 C    1.643662775334   -3.769533002003    0.006015357319
 N    1.440585937921   -2.407894868489   -0.000819803023
 H    2.244413063172   -1.787934328734   -0.082807825445
 N    2.969117529571   -4.188207723683   -0.072331945916
 H    3.623653734903   -3.656404499283    0.495308830814
 H    3.047922616962   -5.188907867618    0.089251392073
 C    0.181312195604   -1.721861164958    0.012133983654
 O    0.153731826499   -0.493688080181    0.008045855226
 C   -0.891472930372   -2.695554554232    0.018335181594
 N   -2.262546232141   -2.509223508919    0.018259996878
 C   -2.756069726652   -3.747826522964    0.007929897213
 H   -3.813567639920   -4.001973144796    0.004983252787
 H   -1.895457902400   -5.722820738060   -0.006771645612
CS    0.061684225825    3.605255818504   -0.005597994557
