17

 N   -1.759852856521   -5.184168423915    0.003445471784
 C   -0.549664789677   -4.528962220239    0.007407095752
 N    0.683747624626   -5.127639914701    0.019445380657
 C    1.654170824682   -4.237463773090    0.007572923684
 N    1.451093987269   -2.875825639576    0.000737763342
 H    2.254921112520   -2.255865099821   -0.081250259080
 N    2.979625578919   -4.656138494770   -0.070774379551
 H    3.634161784251   -4.124335270370    0.496866397179
 H    3.058430666310   -5.656838638705    0.090808958438
 C    0.191820244952   -2.189791936045    0.013691550019
 O    0.164239875847   -0.961618851268    0.009603421591
 C   -0.880964881024   -3.163485325319    0.019892747959
 N   -2.252038182793   -2.977154280006    0.019817563243
 C   -2.745561677304   -4.215757294051    0.009487463578
 H   -3.803059590572   -4.469903915883    0.006540819152
 H   -1.884949853052   -6.190751509147   -0.005214079247
CS    0.049741640862    4.137067461731   -0.007368196432
