17

 N   -1.756700441717   -5.324547655241    0.003912741694
 C   -0.546512374873   -4.669341451565    0.007874365662
 N    0.686900039430   -5.268019146027    0.019912650567
 C    1.657323239486   -4.377843004416    0.008040193594
 N    1.454246402073   -3.016204870902    0.001205033252
 H    2.258073527324   -2.396244331147   -0.080782989170
 N    2.982777993723   -4.796517726096   -0.070307109641
 H    3.637314199055   -4.264714501696    0.497333667089
 H    3.061583081114   -5.797217870031    0.091276228348
 C    0.194972659756   -2.330171167371    0.014158819929
 O    0.167392290651   -1.101998082594    0.010070691501
 C   -0.877812466220   -3.303864556645    0.020360017869
 N   -2.248885767989   -3.117533511332    0.020284833153
 C   -2.742409262500   -4.356136525377    0.009954733488
 H   -3.799907175768   -4.610283147209    0.007008089062
 H   -1.881797438248   -6.331130740473   -0.004746809337
CS    0.046158865373    4.296610954700   -0.007899256994
