17

 N   -1.754598831848   -5.418133809458    0.004224254967
 C   -0.544410765004   -4.762927605782    0.008185878935
 N    0.689001649299   -5.361605300244    0.020224163840
 C    1.659424849355   -4.471429158633    0.008351706867
 N    1.456348011942   -3.109791025119    0.001516546525
 H    2.260175137193   -2.489830485364   -0.080471475897
 N    2.984879603592   -4.890103880313   -0.069995596368
 H    3.639415808924   -4.358300655913    0.497645180362
 H    3.063684690983   -5.890804024248    0.091587741621
 C    0.197074269625   -2.423757321588    0.014470333202
 O    0.169493900520   -1.195584236811    0.010382204774
 C   -0.875710856351   -3.397450710862    0.020671531142
 N   -2.246784158120   -3.211119665549    0.020596346426
 C   -2.740307652631   -4.449722679594    0.010266246761
 H   -3.797805565899   -4.703869301426    0.007319602335
 H   -1.879695828379   -6.424716894690   -0.004435296064
CS    0.043770348380    4.402973283345   -0.008253297369
