17

 N   -1.753548026913   -5.464926886567    0.004380011604
 C   -0.543359960069   -4.809720682891    0.008341635572
 N    0.690052454234   -5.408398377353    0.020379920477
 C    1.660475654290   -4.518222235742    0.008507463504
 N    1.457398816877   -3.156584102228    0.001672303162
 H    2.261225942128   -2.536623562473   -0.080315719260
 N    2.985930408527   -4.936896957422   -0.069839839731
 H    3.640466613859   -4.405093733022    0.497800936999
 H    3.064735495918   -5.937597101357    0.091743498258
 C    0.198125074560   -2.470550398697    0.014626089839
 O    0.170544705455   -1.242377313920    0.010537961411
 C   -0.874660051416   -3.444243787971    0.020827287779
 N   -2.245733353185   -3.257912742658    0.020752103063
 C   -2.739256847696   -4.496515756703    0.010422003398
 H   -3.796754760964   -4.750662378535    0.007475358972
 H   -1.878645023444   -6.471509971799   -0.004279539427
CS    0.042576089884    4.456154447668   -0.008430317557
