17

 N   -1.752497221978   -5.511719963675    0.004535768240
 C   -0.542309155134   -4.856513759999    0.008497392208
 N    0.691103259169   -5.455191454461    0.020535677113
 C    1.661526459225   -4.565015312850    0.008663220140
 N    1.458449621812   -3.203377179336    0.001828059798
 H    2.262276747063   -2.583416639581   -0.080159962624
 N    2.986981213462   -4.983690034530   -0.069684083095
 H    3.641517418794   -4.451886810130    0.497956693635
 H    3.065786300853   -5.984390178465    0.091899254894
 C    0.199175879495   -2.517343475805    0.014781846475
 O    0.171595510390   -1.289170391028    0.010693718047
 C   -0.873609246481   -3.491036865079    0.020983044415
 N   -2.244682548250   -3.304705819766    0.020907859699
 C   -2.738206042761   -4.543308833811    0.010577760034
 H   -3.795703956029   -4.797455455643    0.007631115608
 H   -1.877594218509   -6.518303048907   -0.004123782791
CS    0.041381831387    4.509335611990   -0.008607337744
