17

 N   -1.751446417043   -5.558513040784    0.004691524877
 C   -0.541258350199   -4.903306837108    0.008653148845
 N    0.692154064104   -5.501984531570    0.020691433750
 C    1.662577264160   -4.611808389959    0.008818976777
 N    1.459500426747   -3.250170256445    0.001983816435
 H    2.263327551998   -2.630209716690   -0.080004205987
 N    2.988032018397   -5.030483111639   -0.069528326458
 H    3.642568223729   -4.498679887239    0.498112450272
 H    3.066837105788   -6.031183255574    0.092055011531
 C    0.200226684430   -2.564136552914    0.014937603112
 O    0.172646315325   -1.335963468137    0.010849474684
 C   -0.872558441546   -3.537829942188    0.021138801052
 N   -2.243631743315   -3.351498896875    0.021063616336
 C   -2.737155237826   -4.590101910920    0.010733516671
 H   -3.794653151094   -4.844248532752    0.007786872245
 H   -1.876543413574   -6.565096126016   -0.003968026154
CS    0.040187572891    4.562516776313   -0.008784357932
