17

 N   -1.750395612109   -5.605306117893    0.004847281513
 C   -0.540207545265   -4.950099914217    0.008808905481
 N    0.693204869038   -5.548777608679    0.020847190386
 C    1.663628069094   -4.658601467068    0.008974733413
 N    1.460551231681   -3.296963333554    0.002139573071
 H    2.264378356932   -2.677002793799   -0.079848449351
 N    2.989082823331   -5.077276188748   -0.069372569822
 H    3.643619028663   -4.545472964348    0.498268206908
 H    3.067887910722   -6.077976332683    0.092210768167
 C    0.201277489364   -2.610929630023    0.015093359748
 O    0.173697120259   -1.382756545246    0.011005231320
 C   -0.871507636612   -3.584623019297    0.021294557688
 N   -2.242580938381   -3.398291973984    0.021219372972
 C   -2.736104432892   -4.636894988029    0.010889273307
 H   -3.793602346160   -4.891041609861    0.007942628881
 H   -1.875492608640   -6.611889203125   -0.003812269518
CS    0.038993314395    4.615697940636   -0.008961378119
