17

 N   -1.749344807174   -5.652099195001    0.005003038150
 C   -0.539156740330   -4.996892991325    0.008964662118
 N    0.694255673973   -5.595570685787    0.021002947023
 C    1.664678874029   -4.705394544176    0.009130490050
 N    1.461602036616   -3.343756410662    0.002295329708
 H    2.265429161867   -2.723795870907   -0.079692692714
 N    2.990133628266   -5.124069265856   -0.069216813185
 H    3.644669833598   -4.592266041456    0.498423963545
 H    3.068938715657   -6.124769409791    0.092366524804
 C    0.202328294299   -2.657722707131    0.015249116385
 O    0.174747925194   -1.429549622354    0.011160987957
 C   -0.870456831677   -3.631416096405    0.021450314325
 N   -2.241530133446   -3.445085051092    0.021375129609
 C   -2.735053627957   -4.683688065137    0.011045029944
 H   -3.792551541225   -4.937834686969    0.008098385518
 H   -1.874441803705   -6.658682280233   -0.003656512881
CS    0.037799055898    4.668879104959   -0.009138398307
