17

 N   -1.748294002239   -5.698892272110    0.005158794786
 C   -0.538105935395   -5.043686068434    0.009120418754
 N    0.695306478908   -5.642363762896    0.021158703659
 C    1.665729678964   -4.752187621285    0.009286246686
 N    1.462652841551   -3.390549487771    0.002451086344
 H    2.266479966802   -2.770588948016   -0.079536936078
 N    2.991184433201   -5.170862342965   -0.069061056549
 H    3.645720638533   -4.639059118565    0.498579720181
 H    3.069989520592   -6.171562486900    0.092522281440
 C    0.203379099234   -2.704515784240    0.015404873021
 O    0.175798730129   -1.476342699463    0.011316744593
 C   -0.869406026742   -3.678209173514    0.021606070961
 N   -2.240479328511   -3.491878128201    0.021530886245
 C   -2.734002823022   -4.730481142246    0.011200786580
 H   -3.791500736290   -4.984627764078    0.008254142154
 H   -1.873390998770   -6.705475357342   -0.003500756245
CS    0.036604797402    4.722060269281   -0.009315418494
