17

 N   -1.746192392370   -5.792478426327    0.005470308059
 C   -0.536004325526   -5.137272222651    0.009431932027
 N    0.697408088777   -5.735949917113    0.021470216932
 C    1.667831288833   -4.845773775502    0.009597759959
 N    1.464754451420   -3.484135641988    0.002762599617
 H    2.268581576671   -2.864175102233   -0.079225422805
 N    2.993286043070   -5.264448497182   -0.068749543276
 H    3.647822248402   -4.732645272782    0.498891233454
 H    3.072091130461   -6.265148641117    0.092833794713
 C    0.205480709103   -2.798101938457    0.015716386294
 O    0.177900339998   -1.569928853680    0.011628257866
 C   -0.867304416873   -3.771795327731    0.021917584234
 N   -2.238377718642   -3.585464282418    0.021842399518
 C   -2.731901213153   -4.824067296463    0.011512299853
 H   -3.789399126421   -5.078213918295    0.008565655427
 H   -1.871289388901   -6.799061511559   -0.003189242972
CS    0.034216280409    4.828422597927   -0.009669458869
