17

 N   -1.740938367696   -6.026443811871    0.006249091242
 C   -0.530750300852   -5.371237608195    0.010210715210
 N    0.702662113451   -5.969915302657    0.022249000115
 C    1.673085313507   -5.079739161046    0.010376543142
 N    1.470008476094   -3.718101027532    0.003541382800
 H    2.273835601345   -3.098140487777   -0.078446639622
 N    2.998540067744   -5.498413882726   -0.067970760093
 H    3.653076273076   -4.966610658326    0.499670016637
 H    3.077345155135   -6.499114026661    0.093612577896
 C    0.210734733777   -3.032067324001    0.016495169477
 O    0.183154364672   -1.803894239224    0.012407041049
 C   -0.862050392199   -4.005760713275    0.022696367417
 N   -2.233123693968   -3.819429667962    0.022621182701
 C   -2.726647188479   -5.058032682007    0.012291083036
 H   -3.784145101747   -5.312179303839    0.009344438610
 H   -1.866035364227   -7.033026897103   -0.002410459789
CS    0.028244987928    5.094328419540   -0.010554559806
