17

 N   -1.739887562761   -6.073236888979    0.006404847879
 C   -0.529699495917   -5.418030685303    0.010366471847
 N    0.703712918386   -6.016708379765    0.022404756752
 C    1.674136118442   -5.126532238154    0.010532299779
 N    1.471059281029   -3.764894104640    0.003697139437
 H    2.274886406280   -3.144933564885   -0.078290882985
 N    2.999590872679   -5.545206959834   -0.067815003456
 H    3.654127078011   -5.013403735434    0.499825773274
 H    3.078395960070   -6.545907103769    0.093768334533
 C    0.211785538712   -3.078860401109    0.016650926114
 O    0.184205169607   -1.850687316332    0.012562797686
 C   -0.860999587264   -4.052553790383    0.022852124054
 N   -2.232072889033   -3.866222745070    0.022776939338
 C   -2.725596383544   -5.104825759115    0.012446839673
 H   -3.783094296812   -5.358972380947    0.009500195247
 H   -1.864984559292   -7.079819974211   -0.002254703152
CS    0.027050729431    5.147509583863   -0.010731579994
