17

 N   -1.737785952892   -6.166823043197    0.006716361152
 C   -0.527597886048   -5.511616839521    0.010677985120
 N    0.705814528255   -6.110294533983    0.022716270025
 C    1.676237728311   -5.220118392372    0.010843813052
 N    1.473160890898   -3.858480258858    0.004008652710
 H    2.276988016149   -3.238519719103   -0.077979369712
 N    3.001692482548   -5.638793114052   -0.067503490183
 H    3.656228687880   -5.106989889652    0.500137286547
 H    3.080497569939   -6.639493257987    0.094079847806
 C    0.213887148581   -3.172446555327    0.016962439387
 O    0.186306779476   -1.944273470550    0.012874310959
 C   -0.858897977395   -4.146139944601    0.023163637327
 N   -2.229971279164   -3.959808899288    0.023088452611
 C   -2.723494773675   -5.198411913333    0.012758352946
 H   -3.780992686943   -5.452558535165    0.009811708520
 H   -1.862882949423   -7.173406128429   -0.001943189879
CS    0.024662212439    5.253871912508   -0.011085620369
