17

 N   -1.730430318348   -6.494374582957    0.007806657607
 C   -0.520242251504   -5.839168379281    0.011768281575
 N    0.713170162799   -6.437846073743    0.023806566480
 C    1.683593362855   -5.547669932132    0.011934109507
 N    1.480516525442   -4.186031798618    0.005098949165
 H    2.284343650693   -3.566071258863   -0.076889073257
 N    3.009048117092   -5.966344653812   -0.066413193728
 H    3.663584322424   -5.434541429412    0.501227583002
 H    3.087853204483   -6.967044797747    0.095170144261
 C    0.221242783125   -3.499998095087    0.018052735842
 O    0.193662414020   -2.271825010310    0.013964607414
 C   -0.851542342851   -4.473691484361    0.024253933782
 N   -2.222615644620   -4.287360439048    0.024178749066
 C   -2.716139139131   -5.525963453093    0.013848649401
 H   -3.773637052399   -5.780110074925    0.010902004975
 H   -1.855527314879   -7.500957668189   -0.000852893424
CS    0.016302402964    5.626140062767   -0.012324761681
