17

 N   -1.727277903544   -6.634753814283    0.008273927517
 C   -0.517089836700   -5.979547610607    0.012235551485
 N    0.716322577603   -6.578225305069    0.024273836390
 C    1.686745777659   -5.688049163458    0.012401379417
 N    1.483668940246   -4.326411029944    0.005566219075
 H    2.287496065497   -3.706450490189   -0.076421803347
 N    3.012200531896   -6.106723885138   -0.065945923818
 H    3.666736737228   -5.574920660738    0.501694852912
 H    3.091005619287   -7.107424029073    0.095637414171
 C    0.224395197929   -3.640377326413    0.018520005752
 O    0.196814828824   -2.412204241636    0.014431877324
 C   -0.848389928047   -4.614070715687    0.024721203692
 N   -2.219463229816   -4.427739670374    0.024646018976
 C   -2.712986724327   -5.666342684419    0.014315919311
 H   -3.770484637595   -5.920489306251    0.011369274885
 H   -1.852374900075   -7.641336899515   -0.000385623514
CS    0.012719627475    5.785683555735   -0.012855822243
