17

 N   -1.726227098609   -6.681546891392    0.008429684153
 C   -0.516039031765   -6.026340687716    0.012391308121
 N    0.717373382538   -6.625018382178    0.024429593026
 C    1.687796582594   -5.734842240567    0.012557136053
 N    1.484719745181   -4.373204107053    0.005721975711
 H    2.288546870432   -3.753243567298   -0.076266046711
 N    3.013251336831   -6.153516962247   -0.065790167182
 H    3.667787542163   -5.621713737847    0.501850609548
 H    3.092056424222   -7.154217106182    0.095793170807
 C    0.225446002864   -3.687170403522    0.018675762388
 O    0.197865633759   -2.458997318745    0.014587633960
 C   -0.847339123112   -4.660863792796    0.024876960328
 N   -2.218412424881   -4.474532747483    0.024801775612
 C   -2.711935919392   -5.713135761528    0.014471675947
 H   -3.769433832660   -5.967282383360    0.011525031521
 H   -1.851324095140   -7.688129976624   -0.000229866878
CS    0.011525368979    5.838864720058   -0.013032842431
