17

 N   -1.724125488740   -6.775133045609    0.008741197426
 C   -0.513937421896   -6.119926841933    0.012702821394
 N    0.719474992407   -6.718604536395    0.024741106299
 C    1.689898192463   -5.828428394784    0.012868649326
 N    1.486821355050   -4.466790261270    0.006033488984
 H    2.290648480301   -3.846829721515   -0.075954533438
 N    3.015352946700   -6.247103116464   -0.065478653909
 H    3.669889152032   -5.715299892064    0.502162122821
 H    3.094158034091   -7.247803260399    0.096104684080
 C    0.227547612733   -3.780756557739    0.018987275661
 O    0.199967243628   -2.552583472962    0.014899147233
 C   -0.845237513243   -4.754449947013    0.025188473601
 N   -2.216310815012   -4.568118901700    0.025113288885
 C   -2.709834309523   -5.806721915745    0.014783189220
 H   -3.767332222791   -6.060868537577    0.011836544794
 H   -1.849222485271   -7.781716130841    0.000081646395
CS    0.009136851986    5.945227048704   -0.013386882806
