17

 N   -1.717820659131   -7.055891508261    0.009675737246
 C   -0.507632592287   -6.400685304585    0.013637361214
 N    0.725779822016   -6.999362999047    0.025675646119
 C    1.696203022072   -6.109186857436    0.013803189146
 N    1.493126184659   -4.747548723922    0.006968028804
 H    2.296953309910   -4.127588184167   -0.075019993618
 N    3.021657776309   -6.527861579116   -0.064544114089
 H    3.676193981641   -5.996058354716    0.503096662641
 H    3.100462863700   -7.528561723051    0.097039223900
 C    0.233852442342   -4.061515020391    0.019921815481
 O    0.206272073237   -2.833341935614    0.015833687053
 C   -0.838932683634   -5.035208409665    0.026123013421
 N   -2.210005985403   -4.848877364352    0.026047828705
 C   -2.703529479914   -6.087480378397    0.015717729040
 H   -3.761027393182   -6.341627000229    0.012771084614
 H   -1.842917655662   -8.062474593493    0.001016186215
CS    0.001971301009    6.264314034640   -0.014449003931
