17

 N   -1.716769854196   -7.102684585370    0.009831493882
 C   -0.506581787352   -6.447478381694    0.013793117850
 N    0.726830626951   -7.046156076156    0.025831402755
 C    1.697253827007   -6.155979934545    0.013958945782
 N    1.494176989594   -4.794341801031    0.007123785440
 H    2.298004114845   -4.174381261276   -0.074864236982
 N    3.022708581244   -6.574654656225   -0.064388357453
 H    3.677244786576   -6.042851431825    0.503252419277
 H    3.101513668635   -7.575354800160    0.097194980536
 C    0.234903247277   -4.108308097500    0.020077572117
 O    0.207322878172   -2.880135012723    0.015989443689
 C   -0.837881878699   -5.082001486774    0.026278770057
 N   -2.208955180468   -4.895670441461    0.026203585341
 C   -2.702478674979   -6.134273455506    0.015873485676
 H   -3.759976588247   -6.388420077338    0.012926841250
 H   -1.841866850727   -8.109267670602    0.001171942851
CS    0.000777042512    6.317495198963   -0.014626024118
