17

 N   -1.713617439392   -7.243063816696    0.010298763792
 C   -0.503429372548   -6.587857613020    0.014260387760
 N    0.729983041755   -7.186535307482    0.026298672665
 C    1.700406241811   -6.296359165871    0.014426215692
 N    1.497329404398   -4.934721032357    0.007591055350
 H    2.301156529649   -4.314760492602   -0.074396967072
 N    3.025860996048   -6.715033887551   -0.063921087543
 H    3.680397201380   -6.183230663151    0.503719689187
 H    3.104666083439   -7.715734031486    0.097662250446
 C    0.238055662081   -4.248687328826    0.020544842027
 O    0.210475292976   -3.020514244049    0.016456713599
 C   -0.834729463895   -5.222380718100    0.026746039967
 N   -2.205802765664   -5.036049672787    0.026670855251
 C   -2.699326260175   -6.274652686832    0.016340755586
 H   -3.756824173443   -6.528799308664    0.013394111160
 H   -1.838714435923   -8.249646901928    0.001639212761
CS   -0.002805732977    6.477038691931   -0.015157084680
