17

 N   -1.710465024588   -7.383443048022    0.010766033701
 C   -0.500276957744   -6.728236844346    0.014727657669
 N    0.733135456559   -7.326914538808    0.026765942574
 C    1.703558656615   -6.436738397197    0.014893485601
 N    1.500481819202   -5.075100263683    0.008058325259
 H    2.304308944453   -4.455139723928   -0.073929697163
 N    3.029013410852   -6.855413118877   -0.063453817634
 H    3.683549616184   -6.323609894477    0.504186959096
 H    3.107818498243   -7.856113262812    0.098129520355
 C    0.241208076885   -4.389066560152    0.021012111936
 O    0.213627707780   -3.160893475375    0.016923983508
 C   -0.831577049091   -5.362759949426    0.027213309876
 N   -2.202650350860   -5.176428904113    0.027138125160
 C   -2.696173845371   -6.415031918158    0.016808025495
 H   -3.753671758639   -6.669178539990    0.013861381069
 H   -1.835562021119   -8.390026133254    0.002106482670
CS   -0.006388508466    6.636582184899   -0.015688145243
