12

 C   -1.490880535494    1.104099820864    0.000000000000
 C   -0.378538535494    0.084621820864    0.000000000000
 O   -0.882869535494   -1.181831179136    0.000000000000
 C    0.131596464506   -2.215570179136    0.000000000000
 O    0.819101464506    0.329114820864    0.000000000000
 H   -1.058310535494    2.111109820864    0.000000000000
 H   -2.123217535494    0.961527820864    0.888615000000
 H   -2.123217535494    0.961527820864   -0.888615000000
 H   -0.422500535494   -3.160694179136    0.000000000000
 H    0.761391464506   -2.129271179136    0.896190000000
 H    0.761391464506   -2.129271179136   -0.896190000000
NA    1.135774747519    1.277649496997    0.000000000000
