12

 C   -1.543404015588    0.946775711593    0.000000000000
 C   -0.431062015588   -0.072702288407    0.000000000000
 O   -0.935393015588   -1.339155288407    0.000000000000
 C    0.079072984412   -2.372894288407    0.000000000000
 O    0.766577984412    0.171790711593    0.000000000000
 H   -1.110834015588    1.953785711593    0.000000000000
 H   -2.175741015588    0.804203711593    0.888615000000
 H   -2.175741015588    0.804203711593   -0.888615000000
 H   -0.475024015588   -3.318018288407    0.000000000000
 H    0.708867984412   -2.286595288407    0.896190000000
 H    0.708867984412   -2.286595288407   -0.896190000000
NA    1.304922565535    1.784299661018    0.000000000000
