12

 C   -1.558410724186    0.901825966087    0.000000000000
 C   -0.446068724186   -0.117652033913    0.000000000000
 O   -0.950399724186   -1.384105033913    0.000000000000
 C    0.064066275814   -2.417844033913    0.000000000000
 O    0.751571275814    0.126840966087    0.000000000000
 H   -1.125840724186    1.908835966087    0.000000000000
 H   -2.190747724186    0.759253966087    0.888615000000
 H   -2.190747724186    0.759253966087   -0.888615000000
 H   -0.490030724186   -3.362968033913    0.000000000000
 H    0.693861275814   -2.331545033913    0.896190000000
 H    0.693861275814   -2.331545033913   -0.896190000000
NA    1.353250513539    1.929056850739    0.000000000000
