12

 C   -1.565914078485    0.879351093334    0.000000000000
 C   -0.453572078485   -0.140126906666    0.000000000000
 O   -0.957903078485   -1.406579906666    0.000000000000
 C    0.056562921515   -2.440318906666    0.000000000000
 O    0.744067921515    0.104366093334    0.000000000000
 H   -1.133344078485    1.886361093334    0.000000000000
 H   -2.198251078485    0.736779093334    0.888615000000
 H   -2.198251078485    0.736779093334   -0.888615000000
 H   -0.497534078485   -3.385442906666    0.000000000000
 H    0.686357921515   -2.354019906666    0.896190000000
 H    0.686357921515   -2.354019906666   -0.896190000000
NA    1.377414487542    2.001435445599    0.000000000000
