12

 C   -1.588424141382    0.811926475075    0.000000000000
 C   -0.476082141382   -0.207551524925    0.000000000000
 O   -0.980413141382   -1.474004524925    0.000000000000
 C    0.034052858618   -2.507743524925    0.000000000000
 O    0.721557858618    0.036941475075    0.000000000000
 H   -1.155854141382    1.818936475075    0.000000000000
 H   -2.220761141382    0.669354475075    0.888615000000
 H   -2.220761141382    0.669354475075   -0.888615000000
 H   -0.520044141382   -3.452867524925    0.000000000000
 H    0.663847858618   -2.421444524925    0.896190000000
 H    0.663847858618   -2.421444524925   -0.896190000000
NA    1.449906409548    2.218571230179    0.000000000000
