12

 C   -1.618437558579    0.722026984063    0.000000000000
 C   -0.506095558579   -0.297451015937    0.000000000000
 O   -1.010426558579   -1.563904015937    0.000000000000
 C    0.004039441421   -2.597643015937    0.000000000000
 O    0.691544441421   -0.052958015937    0.000000000000
 H   -1.185867558579    1.729036984063    0.000000000000
 H   -2.250774558579    0.579454984063    0.888615000000
 H   -2.250774558579    0.579454984063   -0.888615000000
 H   -0.550057558579   -3.542767015937    0.000000000000
 H    0.633834441421   -2.511344015937    0.896190000000
 H    0.633834441421   -2.511344015937   -0.896190000000
NA    1.546562305557    2.508085609620    0.000000000000
