12

 C   -1.640947621476    0.654602365803    0.000000000000
 C   -0.528605621476   -0.364875634197    0.000000000000
 O   -1.032936621476   -1.631328634197    0.000000000000
 C   -0.018470621476   -2.665067634197    0.000000000000
 O    0.669034378524   -0.120382634197    0.000000000000
 H   -1.208377621476    1.661612365803    0.000000000000
 H   -2.273284621476    0.512030365803    0.888615000000
 H   -2.273284621476    0.512030365803   -0.888615000000
 H   -0.572567621476   -3.610191634197    0.000000000000
 H    0.611324378524   -2.578768634197    0.896190000000
 H    0.611324378524   -2.578768634197   -0.896190000000
NA    1.619054227564    2.725221394201    0.000000000000
