12

 C   -1.685967747271    0.519753129285    0.000000000000
 C   -0.573625747271   -0.499724870715    0.000000000000
 O   -1.077956747271   -1.766177870715    0.000000000000
 C   -0.063490747271   -2.799916870715    0.000000000000
 O    0.624014252729   -0.255231870715    0.000000000000
 H   -1.253397747271    1.526763129285    0.000000000000
 H   -2.318304747271    0.377181129285    0.888615000000
 H   -2.318304747271    0.377181129285   -0.888615000000
 H   -0.617587747271   -3.745040870715    0.000000000000
 H    0.566304252729   -2.713617870715    0.896190000000
 H    0.566304252729   -2.713617870715   -0.896190000000
NA    1.764038071577    3.159492963362    0.000000000000
