12

 C   -1.693471101570    0.497278256532    0.000000000000
 C   -0.581129101570   -0.522199743468    0.000000000000
 O   -1.085460101570   -1.788652743468    0.000000000000
 C   -0.070994101570   -2.822391743468    0.000000000000
 O    0.616510898430   -0.277706743468    0.000000000000
 H   -1.260901101570    1.504288256532    0.000000000000
 H   -2.325808101570    0.354706256532    0.888615000000
 H   -2.325808101570    0.354706256532   -0.888615000000
 H   -0.625091101570   -3.767515743468    0.000000000000
 H    0.558800898430   -2.736092743468    0.896190000000
 H    0.558800898430   -2.736092743468   -0.896190000000
NA    1.788202045579    3.231871558222    0.000000000000
