12

 C   -1.730987873065    0.384903892767    0.000000000000
 C   -0.618645873065   -0.634574107233    0.000000000000
 O   -1.122976873065   -1.901027107233    0.000000000000
 C   -0.108510873065   -2.934766107233    0.000000000000
 O    0.578994126935   -0.390081107233    0.000000000000
 H   -1.298417873065    1.391913892767    0.000000000000
 H   -2.363324873065    0.242331892767    0.888615000000
 H   -2.363324873065    0.242331892767   -0.888615000000
 H   -0.662607873065   -3.879890107233    0.000000000000
 H    0.521284126935   -2.848467107233    0.896190000000
 H    0.521284126935   -2.848467107233   -0.896190000000
NA    1.909021915590    3.593764532523    0.000000000000
