12

 C   -1.738491227364    0.362429020014    0.000000000000
 C   -0.626149227364   -0.657048979986    0.000000000000
 O   -1.130480227364   -1.923501979986    0.000000000000
 C   -0.116014227364   -2.957240979986    0.000000000000
 O    0.571490772636   -0.412555979986    0.000000000000
 H   -1.305921227364    1.369439020014    0.000000000000
 H   -2.370828227364    0.219857020014    0.888615000000
 H   -2.370828227364    0.219857020014   -0.888615000000
 H   -0.670111227364   -3.902364979986    0.000000000000
 H    0.513780772636   -2.870941979986    0.896190000000
 H    0.513780772636   -2.870941979986   -0.896190000000
NA    1.933185889593    3.666143127383    0.000000000000
