12

 C   -1.745994581664    0.339954147261    0.000000000000
 C   -0.633652581664   -0.679523852739    0.000000000000
 O   -1.137983581664   -1.945976852739    0.000000000000
 C   -0.123517581664   -2.979715852739    0.000000000000
 O    0.563987418336   -0.435030852739    0.000000000000
 H   -1.313424581664    1.346964147261    0.000000000000
 H   -2.378331581664    0.197382147261    0.888615000000
 H   -2.378331581664    0.197382147261   -0.888615000000
 H   -0.677614581664   -3.924839852739    0.000000000000
 H    0.506277418336   -2.893416852739    0.896190000000
 H    0.506277418336   -2.893416852739   -0.896190000000
NA    1.957349863595    3.738521722243    0.000000000000
