12

 C   -1.761001290262    0.295004401755    0.000000000000
 C   -0.648659290262   -0.724473598245    0.000000000000
 O   -1.152990290262   -1.990926598245    0.000000000000
 C   -0.138524290262   -3.024665598245    0.000000000000
 O    0.548980709738   -0.479980598245    0.000000000000
 H   -1.328431290262    1.302014401755    0.000000000000
 H   -2.393338290262    0.152432401755    0.888615000000
 H   -2.393338290262    0.152432401755   -0.888615000000
 H   -0.692621290262   -3.969789598245    0.000000000000
 H    0.491270709738   -2.938366598245    0.896190000000
 H    0.491270709738   -2.938366598245   -0.896190000000
NA    2.005677811599    3.883278911964    0.000000000000
