12

 C   -1.768504644561    0.272529529002    0.000000000000
 C   -0.656162644561   -0.746948470998    0.000000000000
 O   -1.160493644561   -2.013401470998    0.000000000000
 C   -0.146027644561   -3.047140470998    0.000000000000
 O    0.541477355439   -0.502455470998    0.000000000000
 H   -1.335934644561    1.279539529002    0.000000000000
 H   -2.400841644561    0.129957529002    0.888615000000
 H   -2.400841644561    0.129957529002   -0.888615000000
 H   -0.700124644561   -3.992264470998    0.000000000000
 H    0.483767355439   -2.960841470998    0.896190000000
 H    0.483767355439   -2.960841470998   -0.896190000000
NA    2.029841785601    3.955657506824    0.000000000000
