12

 C   -1.791014707458    0.205104910743    0.000000000000
 C   -0.678672707458   -0.814373089257    0.000000000000
 O   -1.183003707458   -2.080826089257    0.000000000000
 C   -0.168537707458   -3.114565089257    0.000000000000
 O    0.518967292542   -0.569880089257    0.000000000000
 H   -1.358444707458    1.212114910743    0.000000000000
 H   -2.423351707458    0.062532910743    0.888615000000
 H   -2.423351707458    0.062532910743   -0.888615000000
 H   -0.722634707458   -4.059689089257    0.000000000000
 H    0.461257292542   -3.028266089257    0.896190000000
 H    0.461257292542   -3.028266089257   -0.896190000000
NA    2.102333707608    4.172793291405    0.000000000000
