12

 C   -1.806021416056    0.160155165236    0.000000000000
 C   -0.693679416056   -0.859322834764    0.000000000000
 O   -1.198010416056   -2.125775834764    0.000000000000
 C   -0.183544416056   -3.159514834764    0.000000000000
 O    0.503960583944   -0.614829834764    0.000000000000
 H   -1.373451416056    1.167165165236    0.000000000000
 H   -2.438358416056    0.017583165236    0.888615000000
 H   -2.438358416056    0.017583165236   -0.888615000000
 H   -0.737641416056   -4.104638834764    0.000000000000
 H    0.446250583944   -3.073215834764    0.896190000000
 H    0.446250583944   -3.073215834764   -0.896190000000
NA    2.150661655613    4.317550481125    0.000000000000
