12

 C   -1.836034833253    0.070255674224    0.000000000000
 C   -0.723692833253   -0.949222325776    0.000000000000
 O   -1.228023833253   -2.215675325776    0.000000000000
 C   -0.213557833253   -3.249414325776    0.000000000000
 O    0.473947166747   -0.704729325776    0.000000000000
 H   -1.403464833253    1.077265674224    0.000000000000
 H   -2.468371833253   -0.072316325776    0.888615000000
 H   -2.468371833253   -0.072316325776   -0.888615000000
 H   -0.767654833253   -4.194538325776    0.000000000000
 H    0.416237166747   -3.163115325776    0.896190000000
 H    0.416237166747   -3.163115325776   -0.896190000000
NA    2.247317551621    4.607064860566    0.000000000000
