12

 C   -1.858544896150    0.002831055965    0.000000000000
 C   -0.746202896150   -1.016646944035    0.000000000000
 O   -1.250533896150   -2.283099944035    0.000000000000
 C   -0.236067896150   -3.316838944035    0.000000000000
 O    0.451437103850   -0.772153944035    0.000000000000
 H   -1.425974896150    1.009841055965    0.000000000000
 H   -2.490881896150   -0.139740944035    0.888615000000
 H   -2.490881896150   -0.139740944035   -0.888615000000
 H   -0.790164896150   -4.261962944035    0.000000000000
 H    0.393727103850   -3.230539944035    0.896190000000
 H    0.393727103850   -3.230539944035   -0.896190000000
NA    2.319809473628    4.824200645146    0.000000000000
