12

 C   -1.866048250449   -0.019643816788    0.000000000000
 C   -0.753706250449   -1.039121816788    0.000000000000
 O   -1.258037250449   -2.305574816788    0.000000000000
 C   -0.243571250449   -3.339313816788    0.000000000000
 O    0.443933749551   -0.794628816788    0.000000000000
 H   -1.433478250449    0.987366183212    0.000000000000
 H   -2.498385250449   -0.162215816788    0.888615000000
 H   -2.498385250449   -0.162215816788   -0.888615000000
 H   -0.797668250449   -4.284437816788    0.000000000000
 H    0.386223749551   -3.253014816788    0.896190000000
 H    0.386223749551   -3.253014816788   -0.896190000000
NA    2.343973447630    4.896579240006    0.000000000000
