12

 C   -1.873551604748   -0.042118689541    0.000000000000
 C   -0.761209604748   -1.061596689541    0.000000000000
 O   -1.265540604748   -2.328049689541    0.000000000000
 C   -0.251074604748   -3.361788689541    0.000000000000
 O    0.436430395252   -0.817103689541    0.000000000000
 H   -1.440981604748    0.964891310459    0.000000000000
 H   -2.505888604748   -0.184690689541    0.888615000000
 H   -2.505888604748   -0.184690689541   -0.888615000000
 H   -0.805171604748   -4.306912689541    0.000000000000
 H    0.378720395252   -3.275489689541    0.896190000000
 H    0.378720395252   -3.275489689541   -0.896190000000
NA    2.368137421633    4.968957834867    0.000000000000
