12

 C   -1.896061667646   -0.109543307800    0.000000000000
 C   -0.783719667646   -1.129021307800    0.000000000000
 O   -1.288050667646   -2.395474307800    0.000000000000
 C   -0.273584667646   -3.429213307800    0.000000000000
 O    0.413920332354   -0.884528307800    0.000000000000
 H   -1.463491667646    0.897466692200    0.000000000000
 H   -2.528398667646   -0.252115307800    0.888615000000
 H   -2.528398667646   -0.252115307800   -0.888615000000
 H   -0.827681667646   -4.374337307800    0.000000000000
 H    0.356210332354   -3.342914307800    0.896190000000
 H    0.356210332354   -3.342914307800   -0.896190000000
NA    2.440629343639    5.186093619447    0.000000000000
