12

 C   -1.926075084842   -0.199442798812    0.000000000000
 C   -0.813733084842   -1.218920798812    0.000000000000
 O   -1.318064084842   -2.485373798812    0.000000000000
 C   -0.303598084842   -3.519112798812    0.000000000000
 O    0.383906915158   -0.974427798812    0.000000000000
 H   -1.493505084842    0.807567201188    0.000000000000
 H   -2.558412084842   -0.342014798812    0.888615000000
 H   -2.558412084842   -0.342014798812   -0.888615000000
 H   -0.857695084842   -4.464236798812    0.000000000000
 H    0.326196915158   -3.432813798812    0.896190000000
 H    0.326196915158   -3.432813798812   -0.896190000000
NA    2.537285239648    5.475607998888    0.000000000000
