12

 C   -1.956088502039   -0.289342289824    0.000000000000
 C   -0.843746502039   -1.308820289824    0.000000000000
 O   -1.348077502039   -2.575273289824    0.000000000000
 C   -0.333611502039   -3.609012289824    0.000000000000
 O    0.353893497961   -1.064327289824    0.000000000000
 H   -1.523518502039    0.717667710176    0.000000000000
 H   -2.588425502039   -0.431914289824    0.888615000000
 H   -2.588425502039   -0.431914289824   -0.888615000000
 H   -0.887708502039   -4.554136289824    0.000000000000
 H    0.296183497961   -3.522713289824    0.896190000000
 H    0.296183497961   -3.522713289824   -0.896190000000
NA    2.633941135657    5.765122378329    0.000000000000
