12

 C   -1.971095210637   -0.334292035331    0.000000000000
 C   -0.858753210637   -1.353770035331    0.000000000000
 O   -1.363084210637   -2.620223035331    0.000000000000
 C   -0.348618210637   -3.653962035331    0.000000000000
 O    0.338886789363   -1.109277035331    0.000000000000
 H   -1.538525210637    0.672717964669    0.000000000000
 H   -2.603432210637   -0.476864035331    0.888615000000
 H   -2.603432210637   -0.476864035331   -0.888615000000
 H   -0.902715210637   -4.599086035331    0.000000000000
 H    0.281176789363   -3.567663035331    0.896190000000
 H    0.281176789363   -3.567663035331   -0.896190000000
NA    2.682269083661    5.909879568049    0.000000000000
