12

 C   -1.978598564936   -0.356766908084    0.000000000000
 C   -0.866256564936   -1.376244908084    0.000000000000
 O   -1.370587564936   -2.642697908084    0.000000000000
 C   -0.356121564936   -3.676436908084    0.000000000000
 O    0.331383435064   -1.131751908084    0.000000000000
 H   -1.546028564936    0.650243091916    0.000000000000
 H   -2.610935564936   -0.499338908084    0.888615000000
 H   -2.610935564936   -0.499338908084   -0.888615000000
 H   -0.910218564936   -4.621560908084    0.000000000000
 H    0.273673435064   -3.590137908084    0.896190000000
 H    0.273673435064   -3.590137908084   -0.896190000000
NA    2.706433057664    5.982258162909    0.000000000000
