12

 C   -2.008611982132   -0.446666399096    0.000000000000
 C   -0.896269982132   -1.466144399096    0.000000000000
 O   -1.400600982132   -2.732597399096    0.000000000000
 C   -0.386134982132   -3.766336399096    0.000000000000
 O    0.301370017868   -1.221651399096    0.000000000000
 H   -1.576041982132    0.560343600904    0.000000000000
 H   -2.640948982132   -0.589238399096    0.888615000000
 H   -2.640948982132   -0.589238399096   -0.888615000000
 H   -0.940231982132   -4.711460399096    0.000000000000
 H    0.243660017868   -3.680037399096    0.896190000000
 H    0.243660017868   -3.680037399096   -0.896190000000
NA    2.803088953672    6.271772542350    0.000000000000
