12

 C   -2.016115336431   -0.469141271849    0.000000000000
 C   -0.903773336431   -1.488619271849    0.000000000000
 O   -1.408104336431   -2.755072271849    0.000000000000
 C   -0.393638336431   -3.788811271849    0.000000000000
 O    0.293866663569   -1.244126271849    0.000000000000
 H   -1.583545336431    0.537868728151    0.000000000000
 H   -2.648452336431   -0.611713271849    0.888615000000
 H   -2.648452336431   -0.611713271849   -0.888615000000
 H   -0.947735336431   -4.733935271849    0.000000000000
 H    0.236156663569   -3.702512271849    0.896190000000
 H    0.236156663569   -3.702512271849   -0.896190000000
NA    2.827252927675    6.344151137210    0.000000000000
