12

 C   -2.031122045030   -0.514091017355    0.000000000000
 C   -0.918780045030   -1.533569017355    0.000000000000
 O   -1.423111045030   -2.800022017355    0.000000000000
 C   -0.408645045030   -3.833761017355    0.000000000000
 O    0.278859954970   -1.289076017355    0.000000000000
 H   -1.598552045030    0.492918982645    0.000000000000
 H   -2.663459045030   -0.656663017355    0.888615000000
 H   -2.663459045030   -0.656663017355   -0.888615000000
 H   -0.962742045030   -4.778885017355    0.000000000000
 H    0.221149954970   -3.747462017355    0.896190000000
 H    0.221149954970   -3.747462017355   -0.896190000000
NA    2.875580875679    6.488908326931    0.000000000000
