12

 C   -2.038625399329   -0.536565890108    0.000000000000
 C   -0.926283399329   -1.556043890108    0.000000000000
 O   -1.430614399329   -2.822496890108    0.000000000000
 C   -0.416148399329   -3.856235890108    0.000000000000
 O    0.271356600671   -1.311550890108    0.000000000000
 H   -1.606055399329    0.470444109892    0.000000000000
 H   -2.670962399329   -0.679137890108    0.888615000000
 H   -2.670962399329   -0.679137890108   -0.888615000000
 H   -0.970245399329   -4.801359890108    0.000000000000
 H    0.213646600671   -3.769936890108    0.896190000000
 H    0.213646600671   -3.769936890108   -0.896190000000
NA    2.899744849681    6.561286921791    0.000000000000
