12

 C   -2.076142170824   -0.648940253873    0.000000000000
 C   -0.963800170824   -1.668418253873    0.000000000000
 O   -1.468131170824   -2.934871253873    0.000000000000
 C   -0.453665170824   -3.968610253873    0.000000000000
 O    0.233839829176   -1.423925253873    0.000000000000
 H   -1.643572170824    0.358069746127    0.000000000000
 H   -2.708479170824   -0.791512253873    0.888615000000
 H   -2.708479170824   -0.791512253873   -0.888615000000
 H   -1.007762170824   -4.913734253873    0.000000000000
 H    0.176129829176   -3.882311253873    0.896190000000
 H    0.176129829176   -3.882311253873   -0.896190000000
NA    3.020564719692    6.923179896092    0.000000000000
