12

 C   -2.091148879423   -0.693889999379    0.000000000000
 C   -0.978806879423   -1.713367999379    0.000000000000
 O   -1.483137879423   -2.979820999379    0.000000000000
 C   -0.468671879423   -4.013559999379    0.000000000000
 O    0.218833120577   -1.468874999379    0.000000000000
 H   -1.658578879423    0.313120000621    0.000000000000
 H   -2.723485879423   -0.836461999379    0.888615000000
 H   -2.723485879423   -0.836461999379   -0.888615000000
 H   -1.022768879423   -4.958683999379    0.000000000000
 H    0.161123120577   -3.927260999379    0.896190000000
 H    0.161123120577   -3.927260999379   -0.896190000000
NA    3.068892667697    7.067937085812    0.000000000000
