12

 C   -2.121162296619   -0.783789490392    0.000000000000
 C   -1.008820296619   -1.803267490392    0.000000000000
 O   -1.513151296619   -3.069720490392    0.000000000000
 C   -0.498685296619   -4.103459490392    0.000000000000
 O    0.188819703381   -1.558774490392    0.000000000000
 H   -1.688592296619    0.223220509608    0.000000000000
 H   -2.753499296619   -0.926361490392    0.888615000000
 H   -2.753499296619   -0.926361490392   -0.888615000000
 H   -1.052782296619   -5.048583490392    0.000000000000
 H    0.131109703381   -4.017160490392    0.896190000000
 H    0.131109703381   -4.017160490392   -0.896190000000
NA    3.165548563706    7.357451465253    0.000000000000
