12

 C   -2.128665650918   -0.806264363145    0.000000000000
 C   -1.016323650918   -1.825742363145    0.000000000000
 O   -1.520654650918   -3.092195363145    0.000000000000
 C   -0.506188650918   -4.125934363145    0.000000000000
 O    0.181316349082   -1.581249363145    0.000000000000
 H   -1.696095650918    0.200745636855    0.000000000000
 H   -2.761002650918   -0.948836363145    0.888615000000
 H   -2.761002650918   -0.948836363145   -0.888615000000
 H   -1.060285650918   -5.071058363145    0.000000000000
 H    0.123606349082   -4.039635363145    0.896190000000
 H    0.123606349082   -4.039635363145   -0.896190000000
NA    3.189712537708    7.429830060113    0.000000000000
