12

 C   -2.158679068115   -0.896163854157    0.000000000000
 C   -1.046337068115   -1.915641854157    0.000000000000
 O   -1.550668068115   -3.182094854157    0.000000000000
 C   -0.536202068115   -4.215833854157    0.000000000000
 O    0.151302931885   -1.671148854157    0.000000000000
 H   -1.726109068115    0.110846145843    0.000000000000
 H   -2.791016068115   -1.038735854157    0.888615000000
 H   -2.791016068115   -1.038735854157   -0.888615000000
 H   -1.090299068115   -5.160957854157    0.000000000000
 H    0.093592931885   -4.129534854157    0.896190000000
 H    0.093592931885   -4.129534854157   -0.896190000000
NA    3.286368433717    7.719344439554    0.000000000000
