17

 N   -1.337807042285   -1.779917172745   -0.005819818256
 C   -0.127618975441   -1.124710969069   -0.001858194288
 N    1.105793438862   -1.723388663531    0.010180090617
 C    2.076216638918   -0.833212521920   -0.001692366356
 N    1.873139801505    0.528425611594   -0.008527526698
 H    2.676966926756    1.148386151349   -0.090515549120
 N    3.401671393155   -1.251887243600   -0.080039669591
 H    4.056207598487   -0.720084019200    0.487601107139
 H    3.480476480546   -2.252587387535    0.081543668398
 C    0.613866059188    1.214459315125    0.004426259979
 O    0.586285690083    2.442632399902    0.000338131551
 C   -0.458919066788    0.240765925851    0.010627457919
 N   -1.829992368557    0.427096971164    0.010552273203
 C   -2.323515863068   -0.811506042881    0.000222173538
 H   -3.381013776336   -1.065652664713   -0.002724470888
 H   -1.462904038816   -2.786500257977   -0.014479369287
NA   -2.485402754126    1.549762333308    0.018279570801
