17

 N   -1.331147298008   -1.791324779925   -0.005898336734
 C   -0.120959231164   -1.136118576249   -0.001936712766
 N    1.112453183139   -1.734796270711    0.010101572139
 C    2.082876383195   -0.844620129100   -0.001770884834
 N    1.879799545782    0.517018004414   -0.008606045176
 H    2.683626671033    1.136978544169   -0.090594067598
 N    3.408331137432   -1.263294850780   -0.080118188069
 H    4.062867342764   -0.731491626380    0.487522588661
 H    3.487136224823   -2.263994994715    0.081465149920
 C    0.620525803465    1.203051707945    0.004347741501
 O    0.592945434360    2.431224792722    0.000259613073
 C   -0.452259322511    0.229358318671    0.010548939441
 N   -1.823332624280    0.415689363984    0.010473754725
 C   -2.316856118791   -0.822913650061    0.000143655060
 H   -3.374354032059   -1.077060271893   -0.002802989366
 H   -1.456244294539   -2.797907865157   -0.014557887765
NA   -2.529159193355    1.624713600139    0.018795459831
