17

 N   -1.304508320900   -1.836955208646   -0.006212410646
 C   -0.094320254056   -1.181749004970   -0.002250786678
 N    1.139092160247   -1.780426699432    0.009787498227
 C    2.109515360303   -0.890250557821   -0.002084958746
 N    1.906438522890    0.471387575693   -0.008920119088
 H    2.710265648141    1.091348115448   -0.090908141510
 N    3.434970114540   -1.308925279501   -0.080432261981
 H    4.089506319872   -0.777122055101    0.487208514749
 H    3.513775201931   -2.309625423436    0.081151076008
 C    0.647164780573    1.157421279224    0.004033667589
 O    0.619584411468    2.385594364001   -0.000054460839
 C   -0.425620345403    0.183727889950    0.010234865529
 N   -1.796693647172    0.370058935263    0.010159680813
 C   -2.290217141683   -0.868544078782   -0.000170418852
 H   -3.347715054951   -1.122690700614   -0.003117063278
 H   -1.429605317431   -2.843538293878   -0.014871961677
NA   -2.704184950269    1.924518667463    0.020859015949
