17

 N   -1.291188832347   -1.859770423007   -0.006369447602
 C   -0.081000765503   -1.204564219331   -0.002407823634
 N    1.152411648800   -1.803241913793    0.009630461271
 C    2.122834848856   -0.913065772182   -0.002241995702
 N    1.919758011443    0.448572361332   -0.009077156044
 H    2.723585136694    1.068532901087   -0.091065178466
 N    3.448289603093   -1.331740493862   -0.080589298937
 H    4.102825808425   -0.799937269462    0.487051477793
 H    3.527094690484   -2.332440637797    0.080994039052
 C    0.660484269126    1.134606064863    0.003876630633
 O    0.632903900021    2.362779149640   -0.000211497795
 C   -0.412300856850    0.160912675589    0.010077828573
 N   -1.783374158619    0.347243720902    0.010002643857
 C   -2.276897653130   -0.891359293143   -0.000327455808
 H   -3.334395566398   -1.145505914975   -0.003274100234
 H   -1.416285828878   -2.866353508239   -0.015028998633
NA   -2.791697828726    2.074421201125    0.021890794008
