17

 N   -1.284529088070   -1.871178030187   -0.006447966080
 C   -0.074341021226   -1.215971826511   -0.002486342112
 N    1.159071393077   -1.814649520973    0.009551942793
 C    2.129494593133   -0.924473379362   -0.002320514180
 N    1.926417755720    0.437164754152   -0.009155674522
 H    2.730244880971    1.057125293907   -0.091143696944
 N    3.454949347370   -1.343148101042   -0.080667817415
 H    4.109485552702   -0.811344876642    0.486972959315
 H    3.533754434761   -2.343848244977    0.080915520574
 C    0.667144013403    1.123198457683    0.003798112155
 O    0.639563644298    2.351371542460   -0.000290016273
 C   -0.405641112573    0.149505068409    0.009999310095
 N   -1.776714414342    0.335836113722    0.009924125379
 C   -2.270237908853   -0.902766900323   -0.000405974286
 H   -3.327735822121   -1.156913522155   -0.003352618712
 H   -1.409626084601   -2.877761115419   -0.015107517111
NA   -2.835454267954    2.149372467956    0.022406683038
