17

 N   -1.277869343793   -1.882585637367   -0.006526484558
 C   -0.067681276949   -1.227379433691   -0.002564860590
 N    1.165731137354   -1.826057128153    0.009473424315
 C    2.136154337410   -0.935880986542   -0.002399032658
 N    1.933077499997    0.425757146972   -0.009234193000
 H    2.736904625248    1.045717686727   -0.091222215422
 N    3.461609091647   -1.354555708222   -0.080746335893
 H    4.116145296979   -0.822752483822    0.486894440837
 H    3.540414179038   -2.355255852157    0.080837002096
 C    0.673803757680    1.111790850503    0.003719593677
 O    0.646223388575    2.339963935280   -0.000368534751
 C   -0.398981368296    0.138097461229    0.009920791617
 N   -1.770054670065    0.324428506542    0.009845606901
 C   -2.263578164576   -0.914174507503   -0.000484492764
 H   -3.321076077844   -1.168321129335   -0.003431137190
 H   -1.402966340324   -2.889168722599   -0.015186035589
NA   -2.879210707183    2.224323734787    0.022922572067
