17

 N   -1.271209599516   -1.893993244547   -0.006605003036
 C   -0.061021532672   -1.238787040871   -0.002643379068
 N    1.172390881631   -1.837464735333    0.009394905837
 C    2.142814081687   -0.947288593722   -0.002477551136
 N    1.939737244274    0.414349539792   -0.009312711478
 H    2.743564369525    1.034310079547   -0.091300733900
 N    3.468268835924   -1.365963315402   -0.080824854371
 H    4.122805041256   -0.834160091002    0.486815922359
 H    3.547073923315   -2.366663459337    0.080758483618
 C    0.680463501957    1.100383243323    0.003641075199
 O    0.652883132852    2.328556328100   -0.000447053229
 C   -0.392321624019    0.126689854049    0.009842273139
 N   -1.763394925788    0.313020899362    0.009767088423
 C   -2.256918420299   -0.925582114683   -0.000563011242
 H   -3.314416333567   -1.179728736515   -0.003509655668
 H   -1.396306596047   -2.900576329779   -0.015264554067
NA   -2.922967146411    2.299275001617    0.023438461097
