17

 N   -1.257890110962   -1.916808458908   -0.006762039992
 C   -0.047702044118   -1.261602255232   -0.002800416024
 N    1.185710370185   -1.860279949694    0.009237868881
 C    2.156133570241   -0.970103808083   -0.002634588092
 N    1.953056732828    0.391534325431   -0.009469748434
 H    2.756883858079    1.011494865186   -0.091457770856
 N    3.481588324478   -1.388778529763   -0.080981891327
 H    4.136124529810   -0.856975305363    0.486658885403
 H    3.560393411869   -2.389478673698    0.080601446662
 C    0.693782990511    1.077568028962    0.003484038243
 O    0.666202621406    2.305741113739   -0.000604090185
 C   -0.379002135465    0.103874639688    0.009685236183
 N   -1.750075437234    0.290205685001    0.009610051467
 C   -2.243598931745   -0.948397329044   -0.000720048198
 H   -3.301096845013   -1.202543950876   -0.003666692624
 H   -1.382987107493   -2.923391544140   -0.015421591023
NA   -3.010480024868    2.449177535279    0.024470239156
