17

 N   -1.231251133854   -1.962438887629   -0.007076113904
 C   -0.021063067010   -1.307232683953   -0.003114489936
 N    1.212349347293   -1.905910378415    0.008923794969
 C    2.182772547349   -1.015734236804   -0.002948662004
 N    1.979695709936    0.345903896710   -0.009783822346
 H    2.783522835187    0.965864436465   -0.091771844768
 N    3.508227301586   -1.434408958484   -0.081295965239
 H    4.162763506918   -0.902605734084    0.486344811491
 H    3.587032388977   -2.435109102419    0.080287372750
 C    0.720421967619    1.031937600241    0.003169964331
 O    0.692841598514    2.260110685018   -0.000918164097
 C   -0.352363158357    0.058244210967    0.009371162271
 N   -1.723436460126    0.244575256280    0.009295977555
 C   -2.216959954637   -0.994027757765   -0.001034122110
 H   -3.274457867905   -1.248174379597   -0.003980766536
 H   -1.356348130385   -2.969021972861   -0.015735664935
NA   -3.185505781782    2.748982602603    0.026533795274
