17

 N   -1.224591389578   -1.973846494809   -0.007154632382
 C   -0.014403322734   -1.318640291133   -0.003193008414
 N    1.219009091569   -1.917317985595    0.008845276491
 C    2.189432291625   -1.027141843984   -0.003027180482
 N    1.986355454212    0.334496289530   -0.009862340824
 H    2.790182579463    0.954456829285   -0.091850363246
 N    3.514887045862   -1.445816565664   -0.081374483717
 H    4.169423251194   -0.914013341264    0.486266293013
 H    3.593692133253   -2.446516709599    0.080208854272
 C    0.727081711895    1.020529993061    0.003091445853
 O    0.699501342790    2.248703077838   -0.000996682575
 C   -0.345703414081    0.046836603787    0.009292643793
 N   -1.716776715850    0.233167649100    0.009217459077
 C   -2.210300210361   -1.005435364945   -0.001112640588
 H   -3.267798123629   -1.259581986777   -0.004059285014
 H   -1.349688386109   -2.980429580041   -0.015814183413
NA   -3.229262221010    2.823933869434    0.027049684303
