17

 N   -1.217931645301   -1.985254101989   -0.007233150860
 C   -0.007743578457   -1.330047898313   -0.003271526892
 N    1.225668835846   -1.928725592775    0.008766758013
 C    2.196092035902   -1.038549451164   -0.003105698960
 N    1.993015198489    0.323088682350   -0.009940859302
 H    2.796842323740    0.943049222105   -0.091928881724
 N    3.521546790139   -1.457224172844   -0.081453002195
 H    4.176082995471   -0.925420948444    0.486187774535
 H    3.600351877530   -2.457924316779    0.080130335794
 C    0.733741456172    1.009122385881    0.003012927375
 O    0.706161087067    2.237295470658   -0.001075201053
 C   -0.339043669804    0.035428996607    0.009214125315
 N   -1.710116971573    0.221760041920    0.009138940599
 C   -2.203640466084   -1.016842972125   -0.001191159066
 H   -3.261138379352   -1.270989593957   -0.004137803492
 H   -1.343028641832   -2.991837187221   -0.015892701891
NA   -3.273018660239    2.898885136265    0.027565573333
