17

 N   -1.211271901024   -1.996661709169   -0.007311669338
 C   -0.001083834180   -1.341455505493   -0.003350045370
 N    1.232328580123   -1.940133199955    0.008688239535
 C    2.202751780179   -1.049957058344   -0.003184217438
 N    1.999674942766    0.311681075170   -0.010019377780
 H    2.803502068017    0.931641614925   -0.092007400202
 N    3.528206534416   -1.468631780024   -0.081531520673
 H    4.182742739748   -0.936828555624    0.486109256057
 H    3.607011621807   -2.469331923959    0.080051817316
 C    0.740401200449    0.997714778701    0.002934408897
 O    0.712820831344    2.225887863478   -0.001153719531
 C   -0.332383925527    0.024021389427    0.009135606837
 N   -1.703457227296    0.210352434740    0.009060422121
 C   -2.196980721807   -1.028250579305   -0.001269677544
 H   -3.254478635075   -1.282397201137   -0.004216321970
 H   -1.336368897555   -3.003244794401   -0.015971220369
NA   -3.316775099467    2.973836403096    0.028081462362
