17

 N   -1.204612156747   -2.008069316350   -0.007390187816
 C    0.005575910097   -1.352863112674   -0.003428563848
 N    1.238988324400   -1.951540807136    0.008609721057
 C    2.209411524456   -1.061364665525   -0.003262735916
 N    2.006334687043    0.300273467989   -0.010097896258
 H    2.810161812294    0.920234007744   -0.092085918680
 N    3.534866278693   -1.480039387205   -0.081610039151
 H    4.189402484025   -0.948236162805    0.486030737579
 H    3.613671366084   -2.480739531140    0.079973298838
 C    0.747060944726    0.986307171520    0.002855890419
 O    0.719480575621    2.214480256297   -0.001232238009
 C   -0.325724181250    0.012613782246    0.009057088359
 N   -1.696797483019    0.198944827559    0.008981903643
 C   -2.190320977530   -1.039658186486   -0.001348196022
 H   -3.247818890798   -1.293804808318   -0.004294840448
 H   -1.329709153278   -3.014652401582   -0.016049738847
NA   -3.360531538695    3.048787669926    0.028597351392
