17

 N   -1.191292668193   -2.030884530710   -0.007547224772
 C    0.018895398651   -1.375678327034   -0.003585600804
 N    1.252307812954   -1.974356021496    0.008452684101
 C    2.222731013010   -1.084179879885   -0.003419772872
 N    2.019654175597    0.277458253629   -0.010254933214
 H    2.823481300848    0.897418793384   -0.092242955636
 N    3.548185767247   -1.502854601565   -0.081767076107
 H    4.202721972579   -0.971051377165    0.485873700623
 H    3.626990854638   -2.503554745500    0.079816261882
 C    0.760380433280    0.963491957160    0.002698853463
 O    0.732800064175    2.191665041937   -0.001389274965
 C   -0.312404692696   -0.010201432114    0.008900051403
 N   -1.683477994465    0.176129613199    0.008824866687
 C   -2.177001488976   -1.062473400846   -0.001505232978
 H   -3.234499402244   -1.316620022678   -0.004451877404
 H   -1.316389664724   -3.037467615942   -0.016206775803
NA   -3.448044417152    3.198690203588    0.029629129451
