17

 N   -1.184632923916   -2.042292137890   -0.007625743250
 C    0.025555142928   -1.387085934214   -0.003664119282
 N    1.258967557231   -1.985763628676    0.008374165623
 C    2.229390757287   -1.095587487065   -0.003498291350
 N    2.026313919874    0.266050646449   -0.010333451692
 H    2.830141045125    0.886011186204   -0.092321474114
 N    3.554845511524   -1.514262208745   -0.081845594585
 H    4.209381716856   -0.982458984345    0.485795182145
 H    3.633650598915   -2.514962352680    0.079737743404
 C    0.767040177557    0.952084349980    0.002620334985
 O    0.739459808452    2.180257434757   -0.001467793443
 C   -0.305744948419   -0.021609039294    0.008821532925
 N   -1.676818250188    0.164722006019    0.008746348209
 C   -2.170341744699   -1.073881008026   -0.001583751456
 H   -3.227839657967   -1.328027629858   -0.004530395882
 H   -1.309729920447   -3.048875223122   -0.016285294281
NA   -3.491800856381    3.273641470419    0.030145018481
