17

 N   -1.177973179639   -2.053699745071   -0.007704261728
 C    0.032214887205   -1.398493541395   -0.003742637760
 N    1.265627301508   -1.997171235857    0.008295647145
 C    2.236050501564   -1.106995094246   -0.003576809828
 N    2.032973664151    0.254643039268   -0.010411970170
 H    2.836800789402    0.874603579023   -0.092399992592
 N    3.561505255801   -1.525669815926   -0.081924113063
 H    4.216041461133   -0.993866591526    0.485716663667
 H    3.640310343192   -2.526369959861    0.079659224926
 C    0.773699921834    0.940676742799    0.002541816507
 O    0.746119552729    2.168849827576   -0.001546311921
 C   -0.299085204142   -0.033016646475    0.008743014447
 N   -1.670158505911    0.153314398838    0.008667829731
 C   -2.163682000422   -1.085288615207   -0.001662269934
 H   -3.221179913690   -1.339435237039   -0.004608914360
 H   -1.303070176170   -3.060282830303   -0.016363812759
NA   -3.535557295609    3.348592737250    0.030660907510
