17

 N   -1.171313435362   -2.065107352251   -0.007782780206
 C    0.038874631482   -1.409901148575   -0.003821156238
 N    1.272287045785   -2.008578843037    0.008217128667
 C    2.242710245841   -1.118402701426   -0.003655328306
 N    2.039633408428    0.243235432088   -0.010490488648
 H    2.843460533679    0.863195971843   -0.092478511070
 N    3.568165000078   -1.537077423106   -0.082002631541
 H    4.222701205410   -1.005274198706    0.485638145189
 H    3.646970087469   -2.537777567041    0.079580706448
 C    0.780359666111    0.929269135619    0.002463298029
 O    0.752779297006    2.157442220396   -0.001624830399
 C   -0.292425459865   -0.044424253655    0.008664495969
 N   -1.663498761634    0.141906791658    0.008589311253
 C   -2.157022256145   -1.096696222387   -0.001740788412
 H   -3.214520169413   -1.350842844219   -0.004687432838
 H   -1.296410431893   -3.071690437483   -0.016442331237
NA   -3.579313734838    3.423544004081    0.031176796540
