17

 N   -1.151334202532   -2.099330173792   -0.008018335641
 C    0.058853864312   -1.444123970116   -0.004056711673
 N    1.292266278615   -2.042801664578    0.007981573232
 C    2.262689478671   -1.152625522967   -0.003890883741
 N    2.059612641258    0.209012610547   -0.010726044083
 H    2.863439766509    0.828973150302   -0.092714066505
 N    3.588144232908   -1.571300244647   -0.082238186976
 H    4.242680438240   -1.039497020247    0.485402589754
 H    3.666949320299   -2.572000388582    0.079345151013
 C    0.800338898941    0.895046314078    0.002227742594
 O    0.772758529836    2.123219398855   -0.001860385834
 C   -0.272446227035   -0.078647075196    0.008428940534
 N   -1.643519528804    0.107683970117    0.008353755818
 C   -2.137043023315   -1.130919043928   -0.001976343847
 H   -3.194540936583   -1.385065665760   -0.004922988273
 H   -1.276431199063   -3.105913259024   -0.016677886672
NA   -3.710583052523    3.648397804574    0.032724463628
