17

 N   -1.138014713978   -2.122145388152   -0.008175372597
 C    0.072173352866   -1.466939184476   -0.004213748629
 N    1.305585767169   -2.065616878938    0.007824536276
 C    2.276008967225   -1.175440737327   -0.004047920697
 N    2.072932129812    0.186197396187   -0.010883081039
 H    2.876759255063    0.806157935942   -0.092871103461
 N    3.601463721462   -1.594115459007   -0.082395223932
 H    4.255999926794   -1.062312234607    0.485245552798
 H    3.680268808853   -2.594815602942    0.079188114057
 C    0.813658387495    0.872231099718    0.002070705638
 O    0.786078018390    2.100404184495   -0.002017422790
 C   -0.259126738481   -0.101462289556    0.008271903578
 N   -1.630200040250    0.084868755757    0.008196718862
 C   -2.123723534761   -1.153734258288   -0.002133380803
 H   -3.181221448029   -1.407880880120   -0.005080025229
 H   -1.263111710509   -3.128728473384   -0.016834923628
NA   -3.798095930980    3.798300338235    0.033756241687
