17

 N   -1.124695225424   -2.144960602512   -0.008332409553
 C    0.085492841420   -1.489754398836   -0.004370785585
 N    1.318905255723   -2.088432093298    0.007667499320
 C    2.289328455779   -1.198255951687   -0.004204957653
 N    2.086251618366    0.163382181827   -0.011040117995
 H    2.890078743617    0.783342721582   -0.093028140417
 N    3.614783210016   -1.616930673367   -0.082552260888
 H    4.269319415348   -1.085127448967    0.485088515842
 H    3.693588297407   -2.617630817302    0.079031077101
 C    0.826977876049    0.849415885358    0.001913668682
 O    0.799397506944    2.077588970135   -0.002174459746
 C   -0.245807249927   -0.124277503916    0.008114866622
 N   -1.616880551696    0.062053541397    0.008039681906
 C   -2.110404046207   -1.176549472648   -0.002290417759
 H   -3.167901959475   -1.430696094480   -0.005237062185
 H   -1.249792221955   -3.151543687744   -0.016991960584
NA   -3.885608809437    3.948202871897    0.034788019746
