17

 N   -1.118035481147   -2.156368209693   -0.008410928031
 C    0.092152585697   -1.501162006017   -0.004449304063
 N    1.325565000000   -2.099839700479    0.007588980842
 C    2.295988200056   -1.209663558868   -0.004283476131
 N    2.092911362643    0.151974574646   -0.011118636473
 H    2.896738487894    0.771935114401   -0.093106658895
 N    3.621442954293   -1.628338280548   -0.082630779366
 H    4.275979159625   -1.096535056148    0.485009997364
 H    3.700248041684   -2.629038424483    0.078952558623
 C    0.833637620326    0.838008278177    0.001835150204
 O    0.806057251221    2.066181362954   -0.002252978224
 C   -0.239147505650   -0.135685111097    0.008036348144
 N   -1.610220807419    0.050645934216    0.007961163428
 C   -2.103744301930   -1.187957079829   -0.002368936237
 H   -3.161242215198   -1.442103701661   -0.005315580663
 H   -1.243132477678   -3.162951294925   -0.017070479062
NA   -3.929365248665    4.023154138728    0.035303908776
