17

 N   -1.111375736870   -2.167775816873   -0.008489446509
 C    0.098812329974   -1.512569613197   -0.004527822541
 N    1.332224744277   -2.111247307659    0.007510462364
 C    2.302647944333   -1.221071166048   -0.004361994609
 N    2.099571106920    0.140566967466   -0.011197154951
 H    2.903398232171    0.760527507221   -0.093185177373
 N    3.628102698570   -1.639745887728   -0.082709297844
 H    4.282638903902   -1.107942663328    0.484931478886
 H    3.706907785961   -2.640446031663    0.078874040145
 C    0.840297364603    0.826600670997    0.001756631726
 O    0.812716995498    2.054773755774   -0.002331496702
 C   -0.232487761373   -0.147092718277    0.007957829666
 N   -1.603561063142    0.039238327036    0.007882644950
 C   -2.097084557653   -1.199364687009   -0.002447454715
 H   -3.154582470921   -1.453511308841   -0.005394099141
 H   -1.236472733401   -3.174358902105   -0.017148997540
NA   -3.973121687894    4.098105405559    0.035819797805
