17

 N   -1.084736759763   -2.213406245594   -0.008803520421
 C    0.125451307081   -1.558200041918   -0.004841896453
 N    1.358863721384   -2.156877736380    0.007196388452
 C    2.329286921440   -1.266701594769   -0.004676068521
 N    2.126210084027    0.094936538745   -0.011511228863
 H    2.930037209278    0.714897078500   -0.093499251285
 N    3.654741675677   -1.685376316449   -0.083023371756
 H    4.309277881009   -1.153573092049    0.484617404974
 H    3.733546763068   -2.686076460384    0.078559966233
 C    0.866936341710    0.780970242276    0.001442557814
 O    0.839355972605    2.009143327053   -0.002645570614
 C   -0.205848784266   -0.192723146998    0.007643755754
 N   -1.576922086035   -0.006392101685    0.007568571038
 C   -2.070445580546   -1.244995115730   -0.002761528627
 H   -3.127943493814   -1.499141737562   -0.005708173053
 H   -1.209833756294   -3.219989330826   -0.017463071452
NA   -4.148147444808    4.397910472883    0.037883353924
