17

 N   -1.078077015486   -2.224813852774   -0.008882038899
 C    0.132111051358   -1.569607649098   -0.004920414931
 N    1.365523465661   -2.168285343560    0.007117869974
 C    2.335946665717   -1.278109201949   -0.004754586999
 N    2.132869828304    0.083528931565   -0.011589747341
 H    2.936696953555    0.703489471320   -0.093577769763
 N    3.661401419954   -1.696783923629   -0.083101890234
 H    4.315937625286   -1.164980699229    0.484538886496
 H    3.740206507345   -2.697484067564    0.078481447755
 C    0.873596085987    0.769562635096    0.001364039336
 O    0.846015716882    1.997735719873   -0.002724089092
 C   -0.199189039989   -0.204130754178    0.007565237276
 N   -1.570262341758   -0.017799708865    0.007490052560
 C   -2.063785836269   -1.256402722910   -0.002840047105
 H   -3.121283749537   -1.510549344742   -0.005786691531
 H   -1.203174012017   -3.231396938006   -0.017541589930
NA   -4.191903884036    4.472861739714    0.038399242953
