17

 N   -1.058097782655   -2.259036674315   -0.009117594333
 C    0.152090284189   -1.603830470639   -0.005155970365
 N    1.385502698492   -2.202508165101    0.006882314540
 C    2.355925898548   -1.312332023490   -0.004990142433
 N    2.152849061135    0.049306110024   -0.011825302775
 H    2.956676186386    0.669266649779   -0.093813325197
 N    3.681380652785   -1.731006745170   -0.083337445668
 H    4.335916858117   -1.199203520770    0.484303331062
 H    3.760185740176   -2.731706889105    0.078245892321
 C    0.893575318818    0.735339813555    0.001128483902
 O    0.865994949713    1.963512898332   -0.002959644526
 C   -0.179209807158   -0.238353575719    0.007329681842
 N   -1.550283108927   -0.052022530406    0.007254497126
 C   -2.043806603438   -1.290625544451   -0.003075602539
 H   -3.101304516706   -1.544772166283   -0.006022246965
 H   -1.183194779186   -3.265619759547   -0.017777145364
NA   -4.323173201721    4.697715540206    0.039946910042
