17

 N   -1.044778294101   -2.281851888675   -0.009274631289
 C    0.165409772743   -1.626645684999   -0.005313007321
 N    1.398822187046   -2.225323379461    0.006725277584
 C    2.369245387102   -1.335147237850   -0.005147179389
 N    2.166168549689    0.026490895664   -0.011982339731
 H    2.969995674940    0.646451435419   -0.093970362153
 N    3.694700141339   -1.753821959530   -0.083494482624
 H    4.349236346671   -1.222018735130    0.484146294106
 H    3.773505228730   -2.754522103465    0.078088855365
 C    0.906894807372    0.712524599195    0.000971446946
 O    0.879314438267    1.940697683972   -0.003116681482
 C   -0.165890318604   -0.261168790079    0.007172644886
 N   -1.536963620373   -0.074837744766    0.007097460170
 C   -2.030487114884   -1.313440758811   -0.003232639495
 H   -3.087985028152   -1.567587380643   -0.006179283921
 H   -1.169875290632   -3.288434973907   -0.017934182320
NA   -4.410686080178    4.847618073868    0.040978688101
