17

 N   -1.018139316994   -2.327482317396   -0.009588705201
 C    0.192048749850   -1.672276113720   -0.005627081233
 N    1.425461164153   -2.270953808182    0.006411203672
 C    2.395884364209   -1.380777666571   -0.005461253301
 N    2.192807526796   -0.019139533057   -0.012296413643
 H    2.996634652047    0.600821006698   -0.094284436065
 N    3.721339118446   -1.799452388251   -0.083808556536
 H    4.375875323778   -1.267649163851    0.483832220194
 H    3.800144205837   -2.800152532186    0.077774781453
 C    0.933533784479    0.666894170474    0.000657373034
 O    0.905953415374    1.895067255251   -0.003430755394
 C   -0.139251341497   -0.306799218800    0.006858570974
 N   -1.510324643266   -0.120468173487    0.006783386258
 C   -2.003848137777   -1.359071187532   -0.003546713407
 H   -3.061346051045   -1.613217809364   -0.006493357833
 H   -1.143236313525   -3.334065402628   -0.018248256232
NA   -4.585711837092    5.147423141192    0.043042244219
