17

 N   -0.991500339886   -2.373112746117   -0.009902779113
 C    0.218687726958   -1.717906542441   -0.005941155145
 N    1.452100141261   -2.316584236903    0.006097129760
 C    2.422523341317   -1.426408095292   -0.005775327213
 N    2.219446503904   -0.064769961778   -0.012610487555
 H    3.023273629155    0.555190577977   -0.094598509977
 N    3.747978095554   -1.845082816972   -0.084122630448
 H    4.402514300886   -1.313279592572    0.483518146282
 H    3.826783182945   -2.845782960907    0.077460707541
 C    0.960172761587    0.621263741753    0.000343299122
 O    0.932592392482    1.849436826530   -0.003744829306
 C   -0.112612364389   -0.352429647521    0.006544497062
 N   -1.483685666158   -0.166098602208    0.006469312346
 C   -1.977209160669   -1.404701616253   -0.003860787319
 H   -3.034707073937   -1.658848238085   -0.006807431745
 H   -1.116597336417   -3.379695831349   -0.018562330144
NA   -4.760737594006    5.447228208515    0.045105800337
