17

 N   -0.978180851332   -2.395927960477   -0.010059816069
 C    0.232007215512   -1.740721756801   -0.006098192101
 N    1.465419629815   -2.339399451263    0.005940092804
 C    2.435842829871   -1.449223309652   -0.005932364169
 N    2.232765992458   -0.087585176138   -0.012767524511
 H    3.036593117709    0.532375363617   -0.094755546933
 N    3.761297584108   -1.867898031332   -0.084279667404
 H    4.415833789440   -1.336094806932    0.483361109326
 H    3.840102671499   -2.868598175267    0.077303670585
 C    0.973492250141    0.598448527393    0.000186262166
 O    0.945911881036    1.826621612170   -0.003901866262
 C   -0.099292875835   -0.375244861881    0.006387460106
 N   -1.470366177604   -0.188913816568    0.006312275390
 C   -1.963889672115   -1.427516830613   -0.004017824275
 H   -3.021387585383   -1.681663452445   -0.006964468701
 H   -1.103277847863   -3.402511045709   -0.018719367100
NA   -4.848250472463    5.597130742177    0.046137578396
