17

 N   -0.904923664286   -2.521411639460   -0.010923519327
 C    0.305264402558   -1.866205435784   -0.006961895359
 N    1.538676816861   -2.464883130246    0.005076389546
 C    2.509100016917   -1.574706988635   -0.006796067427
 N    2.306023179504   -0.213068855121   -0.013631227769
 H    3.109850304755    0.406891684634   -0.095619250191
 N    3.834554771154   -1.993381710315   -0.085143370662
 H    4.489090976486   -1.461578485915    0.482497406068
 H    3.913359858545   -2.994081854250    0.076439967327
 C    1.046749437187    0.472964848410   -0.000677441092
 O    1.019169068082    1.701137933187   -0.004765569520
 C   -0.026035688789   -0.500728540864    0.005523756848
 N   -1.397108990558   -0.314397495551    0.005448572132
 C   -1.890632485069   -1.553000509596   -0.004881527533
 H   -2.948130398337   -1.807147131428   -0.007828171959
 H   -1.030020660817   -3.527994724692   -0.019583070358
NA   -5.329571303976    6.421594677317    0.051812357721
