17

 N   -0.884944431456   -2.555634461001   -0.011159074761
 C    0.325243635388   -1.900428257325   -0.007197450793
 N    1.558656049691   -2.499105951787    0.004840834112
 C    2.529079249747   -1.608929810176   -0.007031622861
 N    2.326002412334   -0.247291676662   -0.013866783203
 H    3.129829537585    0.372668863093   -0.095854805625
 N    3.854534003984   -2.027604531856   -0.085378926096
 H    4.509070209316   -1.495801307456    0.482261850634
 H    3.933339091375   -3.028304675791    0.076204411893
 C    1.066728670017    0.438742026869   -0.000912996526
 O    1.039148300912    1.666915111646   -0.005001124954
 C   -0.006056455959   -0.534951362405    0.005288201414
 N   -1.377129757728   -0.348620317092    0.005213016698
 C   -1.870653252239   -1.587223331137   -0.005117082967
 H   -2.928151165507   -1.841369952969   -0.008063727393
 H   -1.010041427987   -3.562217546233   -0.019818625792
NA   -5.460840621661    6.646448477810    0.053360024810
