17

 N   -0.878284687179   -2.567042068181   -0.011237593239
 C    0.331903379665   -1.911835864505   -0.007275969271
 N    1.565315793968   -2.510513558967    0.004762315634
 C    2.535738994024   -1.620337417356   -0.007110141339
 N    2.332662156611   -0.258699283842   -0.013945301681
 H    3.136489281862    0.361261255913   -0.095933324103
 N    3.861193748261   -2.039012139036   -0.085457444574
 H    4.515729953593   -1.507208914636    0.482183332156
 H    3.939998835652   -3.039712282971    0.076125893415
 C    1.073388414294    0.427334419689   -0.000991515004
 O    1.045808045189    1.655507504466   -0.005079643432
 C    0.000603288318   -0.546358969585    0.005209682936
 N   -1.370470013451   -0.360027924272    0.005134498220
 C   -1.863993507962   -1.598630938317   -0.005195601445
 H   -2.921491421230   -1.852777560149   -0.008142245871
 H   -1.003381683710   -3.573625153413   -0.019897144270
NA   -5.504597060890    6.721399744641    0.053875913839
