17

 N   -0.851645710071   -2.612672496902   -0.011551667152
 C    0.358542356773   -1.957466293226   -0.007590043184
 N    1.591954771076   -2.556143987688    0.004448241721
 C    2.562377971132   -1.665967846077   -0.007424215252
 N    2.359301133719   -0.304329712563   -0.014259375594
 H    3.163128258970    0.315630827192   -0.096247398016
 N    3.887832725369   -2.084642567757   -0.085771518487
 H    4.542368930701   -1.552839343357    0.481869258243
 H    3.966637812760   -3.085342711692    0.075811819502
 C    1.100027391402    0.381703990968   -0.001305588917
 O    1.072447022297    1.609877075745   -0.005393717345
 C    0.027242265426   -0.591989398306    0.004895609023
 N   -1.343831036343   -0.405658352993    0.004820424307
 C   -1.837354530854   -1.644261367038   -0.005509675358
 H   -2.894852444122   -1.898407988870   -0.008456319784
 H   -0.976742706602   -3.619255582134   -0.020211218183
NA   -5.679622817803    7.021204811964    0.055939469957
