17

 N   -0.825006732963   -2.658302925623   -0.011865741064
 C    0.385181333881   -2.003096721947   -0.007904117096
 N    1.618593748184   -2.601774416409    0.004134167809
 C    2.589016948240   -1.711598274798   -0.007738289164
 N    2.385940110827   -0.349960141284   -0.014573449506
 H    3.189767236078    0.270000398471   -0.096561471928
 N    3.914471702477   -2.130272996478   -0.086085592399
 H    4.569007907809   -1.598469772078    0.481555184331
 H    3.993276789868   -3.130973140413    0.075497745590
 C    1.126666368510    0.336073562247   -0.001619662829
 O    1.099085999405    1.564246647024   -0.005707791257
 C    0.053881242534   -0.637619827027    0.004581535111
 N   -1.317192059235   -0.451288781714    0.004506350395
 C   -1.810715553746   -1.689891795759   -0.005823749270
 H   -2.868213467014   -1.944038417591   -0.008770393696
 H   -0.950103729494   -3.664886010855   -0.020525292095
NA   -5.854648574717    7.321009879288    0.058003026075
