17

 N   -0.798367755856   -2.703933354343   -0.012179814976
 C    0.411820310988   -2.048727150667   -0.008218191008
 N    1.645232725291   -2.647404845129    0.003820093897
 C    2.615655925347   -1.757228703518   -0.008052363076
 N    2.412579087934   -0.395590570004   -0.014887523418
 H    3.216406213185    0.224369969751   -0.096875545840
 N    3.941110679584   -2.175903425198   -0.086399666311
 H    4.595646884916   -1.644100200798    0.481241110419
 H    4.019915766975   -3.176603569133    0.075183671678
 C    1.153305345617    0.290443133527   -0.001933736741
 O    1.125724976512    1.518616218304   -0.006021865169
 C    0.080520219641   -0.683250255747    0.004267461199
 N   -1.290553082128   -0.496919210434    0.004192276483
 C   -1.784076576639   -1.735522224479   -0.006137823182
 H   -2.841574489907   -1.989668846311   -0.009084467608
 H   -0.923464752387   -3.710516439575   -0.020839366007
NA   -6.029674331631    7.620814946611    0.060066582194
