13

 C    2.219379246596    3.407498605571    0.000000000000
 O    2.267949246596    1.935038605571    0.000000000000
 H    3.219339246596    1.757508605571    0.000000000000
 H    1.141149246596    3.608978605571    0.000000000000
 H    2.691559246596    3.810748605571    0.906790000000
 H    2.691559246596    3.810748605571   -0.906790000000
CS   -0.218810753404   -0.186691394429    0.000000000000
 O   -1.359909870480   -1.160289260598    0.000000000000
 C   -1.311334739422   -2.632748252978    0.000000000000
 H   -2.311298336401   -0.982761282485    0.000000000000
 H   -0.233106823819   -2.834223398129    0.000000000000
 H   -1.783514003272   -3.035999611180   -0.906784464467
 H   -1.783514003272   -3.035999611180    0.906784464467
