13

 C    2.231749094438    3.418052690912    0.000000000000
 O    2.280319094438    1.945592690912    0.000000000000
 H    3.231709094438    1.768062690912    0.000000000000
 H    1.153519094438    3.619532690912    0.000000000000
 H    2.703929094438    3.821302690912    0.906790000000
 H    2.703929094438    3.821302690912   -0.906790000000
CS   -0.206440905562   -0.176137309088    0.000000000000
 O   -1.423613297110   -1.214641699668    0.000000000000
 C   -1.375038166052   -2.687100692049    0.000000000000
 H   -2.375001763031   -1.037113721556    0.000000000000
 H   -0.296810250449   -2.888575837200    0.000000000000
 H   -1.847217429902   -3.090352050251   -0.906784464467
 H   -1.847217429902   -3.090352050251    0.906784464467
