13

 C    3.270816313138    4.304595859506    0.000000000000
 O    3.319386313138    2.832135859506    0.000000000000
 H    4.270776313138    2.654605859506    0.000000000000
 H    2.192586313138    4.506075859506    0.000000000000
 H    3.742996313138    4.707845859506    0.906790000000
 H    3.742996313138    4.707845859506   -0.906790000000
CS    0.832626313138    0.710405859506    0.000000000000
 O   -6.774701134036   -5.780246581619    0.000000000000
 C   -6.726126002978   -7.252705574000    0.000000000000
 H   -7.726089599957   -5.602718603507    0.000000000000
 H   -5.647898087374   -7.454180719151    0.000000000000
 H   -7.198305266827   -7.655956932202   -0.906784464467
 H   -7.198305266827   -7.655956932202    0.906784464467
