13

 C    2.343077725013    3.513039458975    0.000000000000
 O    2.391647725013    2.040579458975    0.000000000000
 H    3.343037725013    1.863049458975    0.000000000000
 H    1.264847725013    3.714519458975    0.000000000000
 H    2.815257725013    3.916289458975    0.906790000000
 H    2.815257725013    3.916289458975   -0.906790000000
CS   -0.095112274987   -0.081150541025    0.000000000000
 O   -1.996944136781   -1.703813651306    0.000000000000
 C   -1.948369005723   -3.176272643687    0.000000000000
 H   -2.948332602702   -1.526285673194    0.000000000000
 H   -0.870141090119   -3.377747788837    0.000000000000
 H   -2.420548269572   -3.579524001889   -0.906784464467
 H   -2.420548269572   -3.579524001889    0.906784464467
