13

 C    2.479146051271    3.629134397720    0.000000000000
 O    2.527716051271    2.156674397720    0.000000000000
 H    3.479106051271    1.979144397720    0.000000000000
 H    1.400916051271    3.830614397720    0.000000000000
 H    2.951326051271    4.032384397720    0.906790000000
 H    2.951326051271    4.032384397720   -0.906790000000
CS    0.040956051271    0.034944397720    0.000000000000
 O   -2.697681829711   -2.301690481085    0.000000000000
 C   -2.649106698654   -3.774149473466    0.000000000000
 H   -3.649070295632   -2.124162502973    0.000000000000
 H   -1.570878783050   -3.975624618617    0.000000000000
 H   -3.121285962503   -4.177400831668   -0.906784464467
 H   -3.121285962503   -4.177400831668    0.906784464467
