13

 C    2.503885746954    3.650242568400    0.000000000000
 O    2.552455746954    2.177782568400    0.000000000000
 H    3.503845746954    2.000252568400    0.000000000000
 H    1.425655746954    3.851722568400    0.000000000000
 H    2.976065746954    4.053492568400    0.906790000000
 H    2.976065746954    4.053492568400   -0.906790000000
CS    0.065695746954    0.056052568400    0.000000000000
 O   -2.825088682972   -2.410395359227    0.000000000000
 C   -2.776513551914   -3.882854351608    0.000000000000
 H   -3.776477148893   -2.232867381115    0.000000000000
 H   -1.698285636310   -4.084329496758    0.000000000000
 H   -3.248692815763   -4.286105709810   -0.906784464467
 H   -3.248692815763   -4.286105709810    0.906784464467
