13

 C    2.553365138321    3.692458909762    0.000000000000
 O    2.601935138321    2.219998909762    0.000000000000
 H    3.553325138321    2.042468909762    0.000000000000
 H    1.475135138321    3.893938909762    0.000000000000
 H    3.025545138321    4.095708909762    0.906790000000
 H    3.025545138321    4.095708909762   -0.906790000000
CS    0.115175138321    0.098268909762    0.000000000000
 O   -3.079902389492   -2.627805115510    0.000000000000
 C   -3.031327258434   -4.100264107891    0.000000000000
 H   -4.031290855413   -2.450277137398    0.000000000000
 H   -1.953099342831   -4.301739253042    0.000000000000
 H   -3.503506522283   -4.503515466093   -0.906784464467
 H   -3.503506522283   -4.503515466093    0.906784464467
