13

 C    2.578104834004    3.713567080443    0.000000000000
 O    2.626674834004    2.241107080443    0.000000000000
 H    3.578064834004    2.063577080443    0.000000000000
 H    1.499874834004    3.915047080443    0.000000000000
 H    3.050284834004    4.116817080443    0.906790000000
 H    3.050284834004    4.116817080443   -0.906790000000
CS    0.139914834004    0.119377080443    0.000000000000
 O   -3.207309242752   -2.736509993652    0.000000000000
 C   -3.158734111694   -4.208968986033    0.000000000000
 H   -4.158697708673   -2.558982015540    0.000000000000
 H   -2.080506196091   -4.410444131183    0.000000000000
 H   -3.630913375544   -4.612220344235   -0.906784464467
 H   -3.630913375544   -4.612220344235    0.906784464467
