13

 C    2.602844529688    3.734675251124    0.000000000000
 O    2.651414529688    2.262215251124    0.000000000000
 H    3.602804529688    2.084685251124    0.000000000000
 H    1.524614529688    3.936155251124    0.000000000000
 H    3.075024529688    4.137925251124    0.906790000000
 H    3.075024529688    4.137925251124   -0.906790000000
CS    0.164654529688    0.140485251124    0.000000000000
 O   -3.334716096012   -2.845214871794    0.000000000000
 C   -3.286140964954   -4.317673864174    0.000000000000
 H   -4.286104561933   -2.667686893681    0.000000000000
 H   -2.207913049351   -4.519149009325    0.000000000000
 H   -3.758320228804   -4.720925222377   -0.906784464467
 H   -3.758320228804   -4.720925222377    0.906784464467
