13

 C    2.615214377529    3.745229336464    0.000000000000
 O    2.663784377529    2.272769336464    0.000000000000
 H    3.615174377529    2.095239336464    0.000000000000
 H    1.536984377529    3.946709336464    0.000000000000
 H    3.087394377529    4.148479336464    0.906790000000
 H    3.087394377529    4.148479336464   -0.906790000000
CS    0.177024377529    0.151039336464    0.000000000000
 O   -3.398419522642   -2.899567310865    0.000000000000
 C   -3.349844391584   -4.372026303245    0.000000000000
 H   -4.349807988563   -2.722039332752    0.000000000000
 H   -2.271616475981   -4.573501448396    0.000000000000
 H   -3.822023655434   -4.775277661447   -0.906784464467
 H   -3.822023655434   -4.775277661447    0.906784464467
