13

 C    2.627584225371    3.755783421805    0.000000000000
 O    2.676154225371    2.283323421805    0.000000000000
 H    3.627544225371    2.105793421805    0.000000000000
 H    1.549354225371    3.957263421805    0.000000000000
 H    3.099764225371    4.159033421805    0.906790000000
 H    3.099764225371    4.159033421805   -0.906790000000
CS    0.189394225371    0.161593421805    0.000000000000
 O   -3.462122949272   -2.953919749935    0.000000000000
 C   -3.413547818214   -4.426378742316    0.000000000000
 H   -4.413511415193   -2.776391771823    0.000000000000
 H   -2.335319902611   -4.627853887467    0.000000000000
 H   -3.885727082064   -4.829630100518   -0.906784464467
 H   -3.885727082064   -4.829630100518    0.906784464467
