13

 C    2.639954073213    3.766337507145    0.000000000000
 O    2.688524073213    2.293877507145    0.000000000000
 H    3.639914073213    2.116347507145    0.000000000000
 H    1.561724073213    3.967817507145    0.000000000000
 H    3.112134073213    4.169587507145    0.906790000000
 H    3.112134073213    4.169587507145   -0.906790000000
CS    0.201764073213    0.172147507145    0.000000000000
 O   -3.525826375902   -3.008272189006    0.000000000000
 C   -3.477251244844   -4.480731181387    0.000000000000
 H   -4.477214841823   -2.830744210894    0.000000000000
 H   -2.399023329241   -4.682206326538    0.000000000000
 H   -3.949430508694   -4.883982539589   -0.906784464467
 H   -3.949430508694   -4.883982539589    0.906784464467
