13

 C    2.652323921054    3.776891592485    0.000000000000
 O    2.700893921054    2.304431592485    0.000000000000
 H    3.652283921054    2.126901592485    0.000000000000
 H    1.574093921054    3.978371592485    0.000000000000
 H    3.124503921054    4.180141592485    0.906790000000
 H    3.124503921054    4.180141592485   -0.906790000000
CS    0.214133921054    0.182701592485    0.000000000000
 O   -3.589529802532   -3.062624628077    0.000000000000
 C   -3.540954671474   -4.535083620458    0.000000000000
 H   -4.540918268453   -2.885096649965    0.000000000000
 H   -2.462726755871   -4.736558765609    0.000000000000
 H   -4.013133935324   -4.938334978660   -0.906784464467
 H   -4.013133935324   -4.938334978660    0.906784464467
