13

 C    2.677063616738    3.797999763166    0.000000000000
 O    2.725633616738    2.325539763166    0.000000000000
 H    3.677023616738    2.148009763166    0.000000000000
 H    1.598833616738    3.999479763166    0.000000000000
 H    3.149243616738    4.201249763166    0.906790000000
 H    3.149243616738    4.201249763166   -0.906790000000
CS    0.238873616738    0.203809763166    0.000000000000
 O   -3.716936655793   -3.171329506219    0.000000000000
 C   -3.668361524735   -4.643788498599    0.000000000000
 H   -4.668325121713   -2.993801528106    0.000000000000
 H   -2.590133609131   -4.845263643750    0.000000000000
 H   -4.140540788584   -5.047039856802   -0.906784464467
 H   -4.140540788584   -5.047039856802    0.906784464467
