13

 C    2.689433464579    3.808553848507    0.000000000000
 O    2.738003464579    2.336093848507    0.000000000000
 H    3.689393464579    2.158563848507    0.000000000000
 H    1.611203464579    4.010033848507    0.000000000000
 H    3.161613464579    4.211803848507    0.906790000000
 H    3.161613464579    4.211803848507   -0.906790000000
CS    0.251243464579    0.214363848507    0.000000000000
 O   -3.780640082423   -3.225681945290    0.000000000000
 C   -3.732064951365   -4.698140937670    0.000000000000
 H   -4.732028548344   -3.048153967177    0.000000000000
 H   -2.653837035761   -4.899616082821    0.000000000000
 H   -4.204244215214   -5.101392295872   -0.906784464467
 H   -4.204244215214   -5.101392295872    0.906784464467
