13

 C    2.701803312421    3.819107933847    0.000000000000
 O    2.750373312421    2.346647933847    0.000000000000
 H    3.701763312421    2.169117933847    0.000000000000
 H    1.623573312421    4.020587933847    0.000000000000
 H    3.173983312421    4.222357933847    0.906790000000
 H    3.173983312421    4.222357933847   -0.906790000000
CS    0.263613312421    0.224917933847    0.000000000000
 O   -3.844343509053   -3.280034384360    0.000000000000
 C   -3.795768377995   -4.752493376741    0.000000000000
 H   -4.795731974974   -3.102506406248    0.000000000000
 H   -2.717540462391   -4.953968521892    0.000000000000
 H   -4.267947641844   -5.155744734943   -0.906784464467
 H   -4.267947641844   -5.155744734943    0.906784464467
