13

 C    2.763652551629    3.871878360549    0.000000000000
 O    2.812222551629    2.399418360549    0.000000000000
 H    3.763612551629    2.221888360549    0.000000000000
 H    1.685422551629    4.073358360549    0.000000000000
 H    3.235832551629    4.275128360549    0.906790000000
 H    3.235832551629    4.275128360549   -0.906790000000
CS    0.325462551629    0.277688360549    0.000000000000
 O   -4.162860642203   -3.551796579715    0.000000000000
 C   -4.114285511145   -5.024255572095    0.000000000000
 H   -5.114249108124   -3.374268601602    0.000000000000
 H   -3.036057595542   -5.225730717246    0.000000000000
 H   -4.586464774995   -5.427506930298   -0.906784464467
 H   -4.586464774995   -5.427506930298    0.906784464467
