13

 C    2.899720877888    3.987973299293    0.000000000000
 O    2.948290877888    2.515513299293    0.000000000000
 H    3.899680877888    2.337983299293    0.000000000000
 H    1.821490877888    4.189453299293    0.000000000000
 H    3.371900877888    4.391223299293    0.906790000000
 H    3.371900877888    4.391223299293   -0.906790000000
CS    0.461530877888    0.393783299293    0.000000000000
 O   -4.863598335134   -4.149673409494    0.000000000000
 C   -4.815023204076   -5.622132401875    0.000000000000
 H   -5.814986801055   -3.972145431382    0.000000000000
 H   -3.736795288472   -5.823607547025    0.000000000000
 H   -5.287202467925   -6.025383760077   -0.906784464467
 H   -5.287202467925   -6.025383760077    0.906784464467
