12

 C   -2.001015264366    0.403676094743    0.000000000000
 C   -0.888673264366   -0.615801905257    0.000000000000
 O   -1.393004264366   -1.882254905257    0.000000000000
 C   -0.378538264366   -2.915993905257    0.000000000000
 O    0.308966735634   -0.371308905257    0.000000000000
 H   -1.568445264366    1.410686094743    0.000000000000
 H   -2.633352264366    0.261104094743    0.888615000000
 H   -2.633352264366    0.261104094743   -0.888615000000
 H   -0.932635264366   -3.861117905257    0.000000000000
 H    0.251256735634   -2.829694905257    0.896190000000
 H    0.251256735634   -2.829694905257   -0.896190000000
RB    0.752309331853    0.956639641328    0.000000000000
