12

 C   -2.034849221303    0.302332902540    0.000000000000
 C   -0.922507221303   -0.717145097460    0.000000000000
 O   -1.426838221303   -1.983598097460    0.000000000000
 C   -0.412372221303   -3.017337097460    0.000000000000
 O    0.275132778697   -0.472652097460    0.000000000000
 H   -1.602279221303    1.309342902540    0.000000000000
 H   -2.667186221303    0.159760902540    0.888615000000
 H   -2.667186221303    0.159760902540   -0.888615000000
 H   -0.966469221303   -3.962461097460    0.000000000000
 H    0.217422778697   -2.931038097460    0.896190000000
 H    0.217422778697   -2.931038097460   -0.896190000000
RB    0.781810031518    1.045003384352    0.000000000000
