12

 C   -2.051766199772    0.251661306439    0.000000000000
 C   -0.939424199772   -0.767816693561    0.000000000000
 O   -1.443755199772   -2.034269693561    0.000000000000
 C   -0.429289199772   -3.068008693561    0.000000000000
 O    0.258215800228   -0.523323693561    0.000000000000
 H   -1.619196199772    1.258671306439    0.000000000000
 H   -2.684103199772    0.109089306439    0.888615000000
 H   -2.684103199772    0.109089306439   -0.888615000000
 H   -0.983386199772   -4.013132693561    0.000000000000
 H    0.200505800228   -2.981709693561    0.896190000000
 H    0.200505800228   -2.981709693561   -0.896190000000
RB    0.796560381351    1.089185255864    0.000000000000
