12

 C   -3.455875412672   -3.954081169971    0.000000000000
 C   -2.343533412672   -4.973559169971    0.000000000000
 O   -2.847864412672   -6.240012169971    0.000000000000
 C   -1.833398412672   -7.273751169971    0.000000000000
 O   -1.145893412672   -4.729066169971    0.000000000000
 H   -3.023305412672   -2.947071169971    0.000000000000
 H   -4.088212412672   -4.096653169971    0.888615000000
 H   -4.088212412672   -4.096653169971   -0.888615000000
 H   -2.387495412672   -8.218875169971    0.000000000000
 H   -1.203603412672   -7.187452169971    0.896190000000
 H   -1.203603412672   -7.187452169971   -0.896190000000
RB    2.020839417461    4.756280591353    0.000000000000
