12

 C   -2.136351092115   -0.001696674068    0.000000000000
 C   -1.024009092115   -1.021174674068    0.000000000000
 O   -1.528340092115   -2.287627674068    0.000000000000
 C   -0.513874092115   -3.321366674068    0.000000000000
 O    0.173630907885   -0.776681674068    0.000000000000
 H   -1.703781092115    1.005313325932    0.000000000000
 H   -2.768688092115   -0.144268674068    0.888615000000
 H   -2.768688092115   -0.144268674068   -0.888615000000
 H   -1.067971092115   -4.266490674068    0.000000000000
 H    0.115920907885   -3.235067674068    0.896190000000
 H    0.115920907885   -3.235067674068   -0.896190000000
RB    0.870312130514    1.310094613423    0.000000000000
