12

 C   -2.187102027521   -0.153711462372    0.000000000000
 C   -1.074760027521   -1.173189462372    0.000000000000
 O   -1.579091027521   -2.439642462372    0.000000000000
 C   -0.564625027521   -3.473381462372    0.000000000000
 O    0.122879972479   -0.928696462372    0.000000000000
 H   -1.754532027521    0.853298537628    0.000000000000
 H   -2.819439027521   -0.296283462372    0.888615000000
 H   -2.819439027521   -0.296283462372   -0.888615000000
 H   -1.118722027521   -4.418505462372    0.000000000000
 H    0.065169972479   -3.387082462372    0.896190000000
 H    0.065169972479   -3.387082462372   -0.896190000000
RB    0.914563180012    1.442640227959    0.000000000000
