12

 C   -2.220935984459   -0.255054654574    0.000000000000
 C   -1.108593984459   -1.274532654574    0.000000000000
 O   -1.612924984459   -2.540985654574    0.000000000000
 C   -0.598458984459   -3.574724654574    0.000000000000
 O    0.089046015541   -1.030039654574    0.000000000000
 H   -1.788365984459    0.751955345426    0.000000000000
 H   -2.853272984459   -0.397626654574    0.888615000000
 H   -2.853272984459   -0.397626654574   -0.888615000000
 H   -1.152555984459   -4.519848654574    0.000000000000
 H    0.031336015541   -3.488425654574    0.896190000000
 H    0.031336015541   -3.488425654574   -0.896190000000
RB    0.944063879677    1.531003970983    0.000000000000
