12

 C   -2.271686919865   -0.407069442878    0.000000000000
 C   -1.159344919865   -1.426547442878    0.000000000000
 O   -1.663675919865   -2.693000442878    0.000000000000
 C   -0.649209919865   -3.726739442878    0.000000000000
 O    0.038295080135   -1.182054442878    0.000000000000
 H   -1.839116919865    0.599940557122    0.000000000000
 H   -2.904023919865   -0.549641442878    0.888615000000
 H   -2.904023919865   -0.549641442878   -0.888615000000
 H   -1.203306919865   -4.671863442878    0.000000000000
 H   -0.019414919865   -3.640440442878    0.896190000000
 H   -0.019414919865   -3.640440442878   -0.896190000000
RB    0.988314929175    1.663549585519    0.000000000000
