12

 C   -2.288603898333   -0.457741038980    0.000000000000
 C   -1.176261898333   -1.477219038980    0.000000000000
 O   -1.680592898333   -2.743672038980    0.000000000000
 C   -0.666126898333   -3.777411038980    0.000000000000
 O    0.021378101667   -1.232726038980    0.000000000000
 H   -1.856033898333    0.549268961020    0.000000000000
 H   -2.920940898333   -0.600313038980    0.888615000000
 H   -2.920940898333   -0.600313038980   -0.888615000000
 H   -1.220223898333   -4.722535038980    0.000000000000
 H   -0.036331898333   -3.691112038980    0.896190000000
 H   -0.036331898333   -3.691112038980   -0.896190000000
RB    1.003065279008    1.707731457031    0.000000000000
