12

 C   -2.440856704551   -0.913785403892    0.000000000000
 C   -1.328514704551   -1.933263403892    0.000000000000
 O   -1.832845704551   -3.199716403892    0.000000000000
 C   -0.818379704551   -4.233455403892    0.000000000000
 O   -0.130874704551   -1.688770403892    0.000000000000
 H   -2.008286704551    0.093224596108    0.000000000000
 H   -3.073193704551   -1.056357403892    0.888615000000
 H   -3.073193704551   -1.056357403892   -0.888615000000
 H   -1.372476704551   -5.178579403892    0.000000000000
 H   -0.188584704551   -4.147156403892    0.896190000000
 H   -0.188584704551   -4.147156403892   -0.896190000000
RB    1.135818427502    2.105368300638    0.000000000000
