12

 C   -2.457773683020   -0.964456999993    0.000000000000
 C   -1.345431683020   -1.983934999993    0.000000000000
 O   -1.849762683020   -3.250387999993    0.000000000000
 C   -0.835296683020   -4.284126999993    0.000000000000
 O   -0.147791683020   -1.739441999993    0.000000000000
 H   -2.025203683020    0.042553000007    0.000000000000
 H   -3.090110683020   -1.107028999993    0.888615000000
 H   -3.090110683020   -1.107028999993   -0.888615000000
 H   -1.389393683020   -5.229250999993    0.000000000000
 H   -0.205501683020   -4.197827999993    0.896190000000
 H   -0.205501683020   -4.197827999993   -0.896190000000
RB    1.150568777334    2.149550172150    0.000000000000
