12

 C   -2.508524618426   -1.116471788297    0.000000000000
 C   -1.396182618426   -2.135949788297    0.000000000000
 O   -1.900513618426   -3.402402788297    0.000000000000
 C   -0.886047618426   -4.436141788297    0.000000000000
 O   -0.198542618426   -1.891456788297    0.000000000000
 H   -2.075954618426   -0.109461788297    0.000000000000
 H   -3.140861618426   -1.259043788297    0.888615000000
 H   -3.140861618426   -1.259043788297   -0.888615000000
 H   -1.440144618426   -5.381265788297    0.000000000000
 H   -0.256252618426   -4.349842788297    0.896190000000
 H   -0.256252618426   -4.349842788297   -0.896190000000
RB    1.194819826832    2.282095786686    0.000000000000
