12

 C   -2.626943467707   -1.471172961006    0.000000000000
 C   -1.514601467707   -2.490650961006    0.000000000000
 O   -2.018932467707   -3.757103961006    0.000000000000
 C   -1.004466467707   -4.790842961006    0.000000000000
 O   -0.316961467707   -2.246157961006    0.000000000000
 H   -2.194373467707   -0.464162961006    0.000000000000
 H   -3.259280467707   -1.613744961006    0.888615000000
 H   -3.259280467707   -1.613744961006   -0.888615000000
 H   -1.558563467707   -5.735966961006    0.000000000000
 H   -0.374671467707   -4.704543961006    0.896190000000
 H   -0.374671467707   -4.704543961006   -0.896190000000
RB    1.298072275661    2.591368887269    0.000000000000
