12

 C   -2.643860446175   -1.521844557107    0.000000000000
 C   -1.531518446176   -2.541322557107    0.000000000000
 O   -2.035849446176   -3.807775557107    0.000000000000
 C   -1.021383446176   -4.841514557107    0.000000000000
 O   -0.333878446175   -2.296829557107    0.000000000000
 H   -2.211290446176   -0.514834557107    0.000000000000
 H   -3.276197446175   -1.664416557107    0.888615000000
 H   -3.276197446175   -1.664416557107   -0.888615000000
 H   -1.575480446176   -5.786638557107    0.000000000000
 H   -0.391588446175   -4.755215557107    0.896190000000
 H   -0.391588446175   -4.755215557107   -0.896190000000
RB    1.312822625493    2.635550758781    0.000000000000
