12

 C   -2.796113252394   -1.977888922019    0.000000000000
 C   -1.683771252394   -2.997366922019    0.000000000000
 O   -2.188102252394   -4.263819922019    0.000000000000
 C   -1.173636252394   -5.297558922019    0.000000000000
 O   -0.486131252394   -2.752873922019    0.000000000000
 H   -2.363543252394   -0.970878922019    0.000000000000
 H   -3.428450252394   -2.120460922019    0.888615000000
 H   -3.428450252394   -2.120460922019   -0.888615000000
 H   -1.727733252394   -6.242682922019    0.000000000000
 H   -0.543841252394   -5.211259922019    0.896190000000
 H   -0.543841252394   -5.211259922019   -0.896190000000
RB    1.445575773987    3.033187602388    0.000000000000
