12

 C   -2.829947209331   -2.079232114222    0.000000000000
 C   -1.717605209331   -3.098710114222    0.000000000000
 O   -2.221936209331   -4.365163114222    0.000000000000
 C   -1.207470209331   -5.398902114222    0.000000000000
 O   -0.519965209331   -2.854217114222    0.000000000000
 H   -2.397377209331   -1.072222114222    0.000000000000
 H   -3.462284209331   -2.221804114222    0.888615000000
 H   -3.462284209331   -2.221804114222   -0.888615000000
 H   -1.761567209331   -6.344026114222    0.000000000000
 H   -0.577675209331   -5.312603114222    0.896190000000
 H   -0.577675209331   -5.312603114222   -0.896190000000
RB    1.475076473653    3.121551345412    0.000000000000
