12

 C   -2.863781166268   -2.180575306425    0.000000000000
 C   -1.751439166268   -3.200053306425    0.000000000000
 O   -2.255770166268   -4.466506306425    0.000000000000
 C   -1.241304166268   -5.500245306425    0.000000000000
 O   -0.553799166268   -2.955560306425    0.000000000000
 H   -2.431211166268   -1.173565306425    0.000000000000
 H   -3.496118166268   -2.323147306425    0.888615000000
 H   -3.496118166268   -2.323147306425   -0.888615000000
 H   -1.795401166268   -6.445369306425    0.000000000000
 H   -0.611509166268   -5.413946306425    0.896190000000
 H   -0.611509166268   -5.413946306425   -0.896190000000
RB    1.504577173318    3.209915088436    0.000000000000
