12

 C   -2.880698144737   -2.231246902526    0.000000000000
 C   -1.768356144737   -3.250724902526    0.000000000000
 O   -2.272687144737   -4.517177902526    0.000000000000
 C   -1.258221144737   -5.550916902526    0.000000000000
 O   -0.570716144737   -3.006231902526    0.000000000000
 H   -2.448128144737   -1.224236902526    0.000000000000
 H   -3.513035144737   -2.373818902526    0.888615000000
 H   -3.513035144737   -2.373818902526   -0.888615000000
 H   -1.812318144737   -6.496040902526    0.000000000000
 H   -0.628426144737   -5.464617902526    0.896190000000
 H   -0.628426144737   -5.464617902526   -0.896190000000
RB    1.519327523151    3.254096959948    0.000000000000
