12

 C   -2.948366058612   -2.433933286931    0.000000000000
 C   -1.836024058612   -3.453411286931    0.000000000000
 O   -2.340355058612   -4.719864286931    0.000000000000
 C   -1.325889058612   -5.753603286931    0.000000000000
 O   -0.638384058612   -3.208918286931    0.000000000000
 H   -2.515796058612   -1.426923286931    0.000000000000
 H   -3.580703058612   -2.576505286931    0.888615000000
 H   -3.580703058612   -2.576505286931   -0.888615000000
 H   -1.879986058612   -6.698727286931    0.000000000000
 H   -0.696094058612   -5.667304286931    0.896190000000
 H   -0.696094058612   -5.667304286931   -0.896190000000
RB    1.578328922481    3.430824445996    0.000000000000
