12

 C   -2.999116994018   -2.585948075235    0.000000000000
 C   -1.886774994018   -3.605426075235    0.000000000000
 O   -2.391105994018   -4.871879075235    0.000000000000
 C   -1.376639994018   -5.905618075235    0.000000000000
 O   -0.689134994018   -3.360933075235    0.000000000000
 H   -2.566546994018   -1.578938075235    0.000000000000
 H   -3.631453994018   -2.728520075235    0.888615000000
 H   -3.631453994018   -2.728520075235   -0.888615000000
 H   -1.930736994018   -6.850742075235    0.000000000000
 H   -0.746844994018   -5.819319075235    0.896190000000
 H   -0.746844994018   -5.819319075235   -0.896190000000
RB    1.622579971979    3.563370060531    0.000000000000
