12

 C   -3.016033972486   -2.636619671336    0.000000000000
 C   -1.903691972486   -3.656097671336    0.000000000000
 O   -2.408022972486   -4.922550671336    0.000000000000
 C   -1.393556972486   -5.956289671336    0.000000000000
 O   -0.706051972486   -3.411604671336    0.000000000000
 H   -2.583463972486   -1.629609671336    0.000000000000
 H   -3.648370972486   -2.779191671336    0.888615000000
 H   -3.648370972486   -2.779191671336   -0.888615000000
 H   -1.947653972486   -6.901413671336    0.000000000000
 H   -0.763761972486   -5.869990671336    0.896190000000
 H   -0.763761972486   -5.869990671336   -0.896190000000
RB    1.637330321812    3.607551932043    0.000000000000
