12

 C   -3.032950950955   -2.687291267438    0.000000000000
 C   -1.920608950955   -3.706769267438    0.000000000000
 O   -2.424939950955   -4.973222267438    0.000000000000
 C   -1.410473950955   -6.006961267438    0.000000000000
 O   -0.722968950955   -3.462276267438    0.000000000000
 H   -2.600380950955   -1.680281267438    0.000000000000
 H   -3.665287950955   -2.829863267438    0.888615000000
 H   -3.665287950955   -2.829863267438   -0.888615000000
 H   -1.964570950955   -6.952085267438    0.000000000000
 H   -0.780678950955   -5.920662267438    0.896190000000
 H   -0.780678950955   -5.920662267438   -0.896190000000
RB    1.652080671644    3.651733803555    0.000000000000
