12

 C   -3.066784907892   -2.788634459640    0.000000000000
 C   -1.954442907892   -3.808112459640    0.000000000000
 O   -2.458773907892   -5.074565459640    0.000000000000
 C   -1.444307907892   -6.108304459640    0.000000000000
 O   -0.756802907892   -3.563619459640    0.000000000000
 H   -2.634214907892   -1.781624459640    0.000000000000
 H   -3.699121907892   -2.931206459640    0.888615000000
 H   -3.699121907892   -2.931206459640   -0.888615000000
 H   -1.998404907892   -7.053428459640    0.000000000000
 H   -0.814512907892   -6.022005459640    0.896190000000
 H   -0.814512907892   -6.022005459640   -0.896190000000
RB    1.681581371310    3.740097546579    0.000000000000
