12

 C   -3.100618864830   -2.889977651843    0.000000000000
 C   -1.988276864830   -3.909455651843    0.000000000000
 O   -2.492607864830   -5.175908651843    0.000000000000
 C   -1.478141864830   -6.209647651843    0.000000000000
 O   -0.790636864830   -3.664962651843    0.000000000000
 H   -2.668048864830   -1.882967651843    0.000000000000
 H   -3.732955864830   -3.032549651843    0.888615000000
 H   -3.732955864830   -3.032549651843   -0.888615000000
 H   -2.032238864830   -7.154771651843    0.000000000000
 H   -0.848346864830   -6.123348651843    0.896190000000
 H   -0.848346864830   -6.123348651843   -0.896190000000
RB    1.711082070975    3.828461289603    0.000000000000
