12

 C   -3.134452821767   -2.991320844046    0.000000000000
 C   -2.022110821767   -4.010798844046    0.000000000000
 O   -2.526441821767   -5.277251844046    0.000000000000
 C   -1.511975821767   -6.310990844046    0.000000000000
 O   -0.824470821767   -3.766305844046    0.000000000000
 H   -2.701882821767   -1.984310844046    0.000000000000
 H   -3.766789821767   -3.133892844046    0.888615000000
 H   -3.766789821767   -3.133892844046   -0.888615000000
 H   -2.066072821767   -7.256114844046    0.000000000000
 H   -0.882180821767   -6.224691844046    0.896190000000
 H   -0.882180821767   -6.224691844046   -0.896190000000
RB    1.740582770640    3.916825032627    0.000000000000
