12

 C   -3.252871671048   -3.346022016755    0.000000000000
 C   -2.140529671048   -4.365500016755    0.000000000000
 O   -2.644860671048   -5.631953016755    0.000000000000
 C   -1.630394671048   -6.665692016755    0.000000000000
 O   -0.942889671048   -4.121007016755    0.000000000000
 H   -2.820301671048   -2.339012016755    0.000000000000
 H   -3.885208671048   -3.488594016755    0.888615000000
 H   -3.885208671048   -3.488594016755   -0.888615000000
 H   -2.184491671048   -7.610816016755    0.000000000000
 H   -1.000599671048   -6.579393016755    0.896190000000
 H   -1.000599671048   -6.579393016755   -0.896190000000
RB    1.843835219469    4.226098133210    0.000000000000
