12

 C   -3.269788649517   -3.396693612856    0.000000000000
 C   -2.157446649517   -4.416171612856    0.000000000000
 O   -2.661777649517   -5.682624612856    0.000000000000
 C   -1.647311649517   -6.716363612856    0.000000000000
 O   -0.959806649517   -4.171678612856    0.000000000000
 H   -2.837218649517   -2.389683612856    0.000000000000
 H   -3.902125649517   -3.539265612856    0.888615000000
 H   -3.902125649517   -3.539265612856   -0.888615000000
 H   -2.201408649517   -7.661487612856    0.000000000000
 H   -1.017516649517   -6.630064612856    0.896190000000
 H   -1.017516649517   -6.630064612856   -0.896190000000
RB    1.858585569301    4.270280004722    0.000000000000
