12

 C   -3.303622606454   -3.498036805059    0.000000000000
 C   -2.191280606454   -4.517514805059    0.000000000000
 O   -2.695611606454   -5.783967805059    0.000000000000
 C   -1.681145606454   -6.817706805059    0.000000000000
 O   -0.993640606454   -4.273021805059    0.000000000000
 H   -2.871052606454   -2.491026805059    0.000000000000
 H   -3.935959606454   -3.640608805059    0.888615000000
 H   -3.935959606454   -3.640608805059   -0.888615000000
 H   -2.235242606454   -7.762830805059    0.000000000000
 H   -1.051350606454   -6.731407805059    0.896190000000
 H   -1.051350606454   -6.731407805059   -0.896190000000
RB    1.888086268967    4.358643747746    0.000000000000
