12

 C   -3.337456563391   -3.599379997262    0.000000000000
 C   -2.225114563391   -4.618857997262    0.000000000000
 O   -2.729445563391   -5.885310997262    0.000000000000
 C   -1.714979563391   -6.919049997262    0.000000000000
 O   -1.027474563391   -4.374364997262    0.000000000000
 H   -2.904886563391   -2.592369997262    0.000000000000
 H   -3.969793563391   -3.741951997262    0.888615000000
 H   -3.969793563391   -3.741951997262   -0.888615000000
 H   -2.269076563391   -7.864173997262    0.000000000000
 H   -1.085184563391   -6.832750997262    0.896190000000
 H   -1.085184563391   -6.832750997262   -0.896190000000
RB    1.917586968632    4.447007490770    0.000000000000
