12

 C   -3.354373541860   -3.650051593363    0.000000000000
 C   -2.242031541860   -4.669529593363    0.000000000000
 O   -2.746362541860   -5.935982593363    0.000000000000
 C   -1.731896541860   -6.969721593363    0.000000000000
 O   -1.044391541860   -4.425036593363    0.000000000000
 H   -2.921803541860   -2.643041593363    0.000000000000
 H   -3.986710541860   -3.792623593363    0.888615000000
 H   -3.986710541860   -3.792623593363   -0.888615000000
 H   -2.285993541860   -7.914845593363    0.000000000000
 H   -1.102101541860   -6.883422593363    0.896190000000
 H   -1.102101541860   -6.883422593363   -0.896190000000
RB    1.932337318465    4.491189362282    0.000000000000
