12

 C   -3.388207498797   -3.751394785565    0.000000000000
 C   -2.275865498797   -4.770872785565    0.000000000000
 O   -2.780196498797   -6.037325785565    0.000000000000
 C   -1.765730498797   -7.071064785565    0.000000000000
 O   -1.078225498797   -4.526379785565    0.000000000000
 H   -2.955637498797   -2.744384785565    0.000000000000
 H   -4.020544498797   -3.893966785565    0.888615000000
 H   -4.020544498797   -3.893966785565   -0.888615000000
 H   -2.319827498797   -8.016188785565    0.000000000000
 H   -1.135935498797   -6.984765785565    0.896190000000
 H   -1.135935498797   -6.984765785565   -0.896190000000
RB    1.961838018130    4.579553105306    0.000000000000
