12

 C   -3.422041455735   -3.852737977768    0.000000000000
 C   -2.309699455735   -4.872215977768    0.000000000000
 O   -2.814030455735   -6.138668977768    0.000000000000
 C   -1.799564455735   -7.172407977768    0.000000000000
 O   -1.112059455735   -4.627722977768    0.000000000000
 H   -2.989471455735   -2.845727977768    0.000000000000
 H   -4.054378455735   -3.995309977768    0.888615000000
 H   -4.054378455735   -3.995309977768   -0.888615000000
 H   -2.353661455735   -8.117531977768    0.000000000000
 H   -1.169769455735   -7.086108977768    0.896190000000
 H   -1.169769455735   -7.086108977768   -0.896190000000
RB    1.991338717795    4.667916848329    0.000000000000
