16

 C    1.950610053541    1.115359507319    2.343946794786
 H    2.126900799169    0.342162137978    3.101818814815
 H    1.534049729454    2.024258856385    2.795178704036
 H    2.920323375808    1.374476602507    1.891939884491
 C    1.035334321173    0.593779790257    1.253321785806
 O    0.298314493693    1.423091817924    0.612159900401
 O    1.037979041362   -0.659869681911    0.987851733121
NA   -1.281962237710   -0.378936574807    0.424271568505
NA    0.573649561460   -0.027304775473   -1.282078665933
 C   -0.763764400697   -0.436294837909   -0.915131591459
 O   -0.756356140140    0.819260845523   -0.659030267021
 O   -0.026750376617   -1.265631271265   -0.273980865408
 C   -1.673100858679   -0.956935757969   -2.011154666465
 H   -1.846202822928   -0.182729486375   -2.768742721741
 H   -2.641463036549   -1.216602756097   -1.566017558312
 H   -1.253366466304   -1.864821448307   -2.461561055891
