16

 C    2.101660351626    1.201843410477    2.526007692855
 H    2.277951097254    0.428646041136    3.283879712884
 H    1.685100027539    2.110742759543    2.977239602105
 H    3.071373673893    1.460960505665    2.074000782560
 C    1.186384619258    0.680263693415    1.435382683875
 O    0.449364791778    1.509575721082    0.794220798470
 O    1.189029339447   -0.573385778753    1.169912631190
NA   -1.130911939625   -0.292452671649    0.606332466574
NA    0.724699859545    0.059179127685   -1.100017767864
 C   -1.032503804383   -0.590161681323   -1.239043148086
 O   -1.025095543826    0.665394002108   -0.982941823647
 O   -0.295489780302   -1.419498114679   -0.597892422035
 C   -1.941840262365   -1.110802601383   -2.335066223091
 H   -2.114942226614   -0.336596329789   -3.092654278368
 H   -2.910202440234   -1.370469599511   -1.889929114939
 H   -1.522105869989   -2.018688291721   -2.785472612518
