16

 C    2.123238965638    1.214198253785    2.552016392579
 H    2.299529711266    0.441000884444    3.309888412608
 H    1.706678641551    2.123097602851    3.003248301829
 H    3.092952287905    1.473315348973    2.100009482284
 C    1.207963233270    0.692618536723    1.461391383599
 O    0.470943405790    1.521930564390    0.820229498194
 O    1.210607953459   -0.561030935445    1.195921330914
NA   -1.109333325613   -0.280097828341    0.632341166298
NA    0.746278473557    0.071533970993   -1.074009068140
 C   -1.070895147766   -0.612142658953   -1.285316227604
 O   -1.063486887209    0.643413024478   -1.029214903166
 O   -0.333881123686   -1.441479092310   -0.644165501553
 C   -1.980231605748   -1.132783579013   -2.381339302609
 H   -2.153333569997   -0.358577307419   -3.138927357886
 H   -2.948593783618   -1.392450577142   -1.936202194457
 H   -1.560497213373   -2.040669269352   -2.831745692036
