16

 C    2.144817579650    1.226553097093    2.578025092303
 H    2.321108325278    0.453355727752    3.335897112332
 H    1.728257255563    2.135452446159    3.029257001553
 H    3.114530901917    1.485670192281    2.126018182008
 C    1.229541847282    0.704973380031    1.487400083323
 O    0.492522019802    1.534285407698    0.846238197918
 O    1.232186567471   -0.548676092137    1.221930030638
NA   -1.087754711601   -0.267742985033    0.658349866022
NA    0.767857087569    0.083888814301   -1.048000368416
 C   -1.109286491150   -0.634123636584   -1.331589307122
 O   -1.101878230593    0.621432046847   -1.075487982684
 O   -0.372272467070   -1.463460069941   -0.690438581071
 C   -2.018622949132   -1.154764556644   -2.427612382128
 H   -2.191724913381   -0.380558285050   -3.185200437404
 H   -2.986985127002   -1.414431554772   -1.982475273975
 H   -1.598888556757   -2.062650246982   -2.878018771554
