16

 C    2.166396193662    1.238907940401    2.604033792027
 H    2.342686939290    0.465710571060    3.361905812056
 H    1.749835869575    2.147807289467    3.055265701277
 H    3.136109515929    1.498025035589    2.152026881732
 C    1.251120461294    0.717328223339    1.513408783047
 O    0.514100633814    1.546640251006    0.872246897642
 O    1.253765181483   -0.536321248829    1.247938730362
NA   -1.066176097589   -0.255388141725    0.684358565746
NA    0.789435701581    0.096243657609   -1.021991668692
 C   -1.147677834534   -0.656104614215   -1.377862386641
 O   -1.140269573977    0.599451069216   -1.121761062202
 O   -0.410663810453   -1.485441047571   -0.736711660589
 C   -2.057014292516   -1.176745534275   -2.473885461646
 H   -2.230116256765   -0.402539262681   -3.231473516922
 H   -3.025376470385   -1.436412532403   -2.028748353493
 H   -1.637279900140   -2.084631224613   -2.924291851072
