16

 C    2.231132035698    1.275972470326    2.682059891199
 H    2.407422781326    0.502775100985    3.439931911228
 H    1.814571711611    2.184871819392    3.133291800449
 H    3.200845357965    1.535089565514    2.230052980904
 C    1.315856303330    0.754392753264    1.591434882219
 O    0.578836475850    1.583704780931    0.950272996814
 O    1.318501023519   -0.499256718904    1.325964829534
NA   -1.001440255553   -0.218323611800    0.762384664918
NA    0.854171543617    0.133308187534   -0.943965569520
 C   -1.262851864684   -0.722047547106   -1.516681625195
 O   -1.255443604128    0.533508136325   -1.260580300756
 O   -0.525837840604   -1.551383980463   -0.875530899143
 C   -2.172188322667   -1.242688467166   -2.612704700200
 H   -2.345290286916   -0.468482195572   -3.370292755476
 H   -3.140550500536   -1.502355465295   -2.167567592047
 H   -1.752453930291   -2.150574157505   -3.063111089627
