16

 C    2.274289263722    1.300682156943    2.734077290647
 H    2.450580009350    0.527484787602    3.491949310676
 H    1.857728939635    2.209581506009    3.185309199897
 H    3.244002585989    1.559799252131    2.282070380352
 C    1.359013531354    0.779102439881    1.643452281667
 O    0.621993703874    1.608414467548    1.002290396262
 O    1.361658251543   -0.474547032287    1.377982228982
NA   -0.958283027529   -0.193613925183    0.814402064366
NA    0.897328771641    0.158017874151   -0.891948170072
 C   -1.339634551452   -0.766009502368   -1.609227784231
 O   -1.332226290895    0.489546181063   -1.353126459792
 O   -0.602620527372   -1.595345935724   -0.968077058180
 C   -2.248971009434   -1.286650422428   -2.705250859236
 H   -2.422072973683   -0.512444150834   -3.462838914513
 H   -3.217333187304   -1.546317420556   -2.260113751083
 H   -1.829236617058   -2.194536112766   -3.155657248663
