16

 C    2.295867877734    1.313037000251    2.760085990371
 H    2.472158623362    0.539839630910    3.517958010400
 H    1.879307553647    2.221936349317    3.211317899621
 H    3.265581200001    1.572154095439    2.308079080076
 C    1.380592145366    0.791457283189    1.669460981391
 O    0.643572317886    1.620769310856    1.028299095986
 O    1.383236865555   -0.462192188979    1.403990928706
NA   -0.936704413517   -0.181259081875    0.840410764090
NA    0.918907385653    0.170372717459   -0.865939470348
 C   -1.378025894835   -0.787990479998   -1.655500863749
 O   -1.370617634279    0.467565203433   -1.399399539310
 O   -0.641011870755   -1.617326913355   -1.014350137698
 C   -2.287362352818   -1.308631400058   -2.751523938754
 H   -2.460464317067   -0.534425128464   -3.509111994031
 H   -3.255724530687   -1.568298398187   -2.306386830602
 H   -1.867627960442   -2.216517090396   -3.201930328181
