16

 C    2.317446491746    1.325391843559    2.786094690095
 H    2.493737237374    0.552194474218    3.543966710124
 H    1.900886167659    2.234291192625    3.237326599345
 H    3.287159814013    1.584508938747    2.334087779800
 C    1.402170759378    0.803812126497    1.695469681115
 O    0.665150931898    1.633124154164    1.054307795710
 O    1.404815479567   -0.449837345671    1.429999628430
NA   -0.915125799505   -0.168904238567    0.866419463814
NA    0.940485999665    0.182727560767   -0.839930770624
 C   -1.416417238219   -0.809971457629   -1.701773943267
 O   -1.409008977662    0.445584225802   -1.445672618829
 O   -0.679403214139   -1.639307890986   -1.060623217216
 C   -2.325753696201   -1.330612377689   -2.797797018272
 H   -2.498855660450   -0.556406106095   -3.555385073549
 H   -3.294115874071   -1.590279375817   -2.352659910120
 H   -1.906019303826   -2.238498068027   -3.248203407699
