16

 C    2.468496789830    1.411875746717    2.968155588164
 H    2.644787535458    0.638678377376    3.726027608193
 H    2.051936465743    2.320775095783    3.419387497414
 H    3.438210112097    1.670992841905    2.516148677869
 C    1.553221057462    0.890296029655    1.877530579184
 O    0.816201229982    1.719608057322    1.236368693779
 O    1.555865777651   -0.363353442513    1.612060526499
NA   -0.764075501421   -0.082420335409    1.048480361883
NA    1.091536297749    0.269211463925   -0.657869872555
 C   -1.685156641905   -0.963838301043   -2.025685499894
 O   -1.677748381348    0.291717382388   -1.769584175455
 O   -0.948142617824   -1.793174734400   -1.384534773843
 C   -2.594493099887   -1.484479221103   -3.121708574899
 H   -2.767595064136   -0.710272949509   -3.879296630176
 H   -3.562855277756   -1.744146219231   -2.676571466746
 H   -2.174758707511   -2.392364911441   -3.572114964326
