16

 C    2.490075403842    1.424230590025    2.994164287888
 H    2.666366149470    0.651033220684    3.752036307917
 H    2.073515079755    2.333129939091    3.445396197138
 H    3.459788726109    1.683347685213    2.542157377593
 C    1.574799671474    0.902650872963    1.903539278908
 O    0.837779843994    1.731962900630    1.262377393503
 O    1.577444391663   -0.350998599205    1.638069226223
NA   -0.742496887409   -0.070065492101    1.074489061607
NA    1.113114911761    0.281566307233   -0.631861172831
 C   -1.723547985288   -0.985819278674   -2.071958579412
 O   -1.716139724731    0.269736404757   -1.815857254973
 O   -0.986533961208   -1.815155712030   -1.430807853361
 C   -2.632884443270   -1.506460198734   -3.167981654417
 H   -2.805986407519   -0.732253927140   -3.925569709694
 H   -3.601246621140   -1.766127196862   -2.722844546265
 H   -2.213150050895   -2.414345889072   -3.618388043844
