16

 C    2.705861543962    1.547779023107    3.254251285129
 H    2.882152289590    0.774581653766    4.012123305158
 H    2.289301219875    2.456678372173    3.705483194379
 H    3.675574866229    1.806896118295    2.802244374834
 C    1.790585811594    1.026199306045    2.163626276149
 O    1.053565984114    1.855511333712    1.522464390744
 O    1.793230531783   -0.227450166123    1.898156223464
NA   -0.526710747289    0.053482940981    1.334576058848
NA    1.328901051881    0.405114740315   -0.371774175590
 C   -2.107461419125   -1.205629054980   -2.534689374593
 O   -2.100053158568    0.049926628451   -2.278588050155
 O   -1.370447395045   -2.034965488337   -1.893538648542
 C   -3.016797877107   -1.726269975040   -3.630712449598
 H   -3.189899841356   -0.952063703446   -4.388300504875
 H   -3.985160054977   -1.985936973168   -3.185575341446
 H   -2.597063484731   -2.634155665378   -4.081118839025
