16

 C    2.813754614022    1.609553239649    3.384294783749
 H    2.990045359650    0.836355870308    4.142166803778
 H    2.397194289935    2.518452588715    3.835526692999
 H    3.783467936289    1.868670334837    2.932287873454
 C    1.898478881654    1.087973522587    2.293669774769
 O    1.161459054174    1.917285550254    1.652507889364
 O    1.901123601843   -0.165675949581    2.028199722084
NA   -0.418817677229    0.115257157523    1.464619557468
NA    1.436794121941    0.466888956857   -0.241730676970
 C   -2.299418136043   -1.315533943133   -2.766054772184
 O   -2.292009875486   -0.059978259702   -2.509953447745
 O   -1.562404111963   -2.144870376490   -2.124904046132
 C   -3.208754594025   -1.836174863193   -3.862077847189
 H   -3.381856558274   -1.061968591599   -4.619665902465
 H   -4.177116771895   -2.095841861321   -3.416940739036
 H   -2.789020201650   -2.744060553531   -4.312484236616
