16

 C    2.900069070070    1.658972612882    3.488329582645
 H    3.076359815698    0.885775243541    4.246201602674
 H    2.483508745983    2.567871961948    3.939561491895
 H    3.869782392337    1.918089708070    3.036322672350
 C    1.984793337702    1.137392895820    2.397704573665
 O    1.247773510222    1.966704923487    1.756542688260
 O    1.987438057891   -0.116256576348    2.132234520980
NA   -0.332503221181    0.164676530756    1.568654356364
NA    1.523108577989    0.516308330090   -0.137695878074
 C   -2.452983509578   -1.403457853655   -2.951147090256
 O   -2.445575249021   -0.147902170224   -2.695045765818
 O   -1.715969485497   -2.232794287012   -2.309996364205
 C   -3.362319967560   -1.924098773715   -4.047170165261
 H   -3.535421931809   -1.149892502121   -4.804758220538
 H   -4.330682145429   -2.183765771844   -3.602033057109
 H   -2.942585575184   -2.831984464054   -4.497576554688
