16

 C    2.943226298095    1.683682299498    3.540346982093
 H    3.119517043723    0.910484930157    4.298219002122
 H    2.526665974008    2.592581648564    3.991578891343
 H    3.912939620362    1.942799394686    3.088340071798
 C    2.027950565727    1.162102582436    2.449721973113
 O    1.290930738247    1.991414610103    1.808560087708
 O    2.030595285916   -0.091546889732    2.184251920428
NA   -0.289345993156    0.189386217372    1.620671755812
NA    1.566265806014    0.541018016706   -0.085678478626
 C   -2.529766196345   -1.447419808917   -3.043693249293
 O   -2.522357935788   -0.191864125485   -2.787591924854
 O   -1.792752172265   -2.276756242273   -2.402542523241
 C   -3.439102654327   -1.968060728977   -4.139716324298
 H   -3.612204618576   -1.193854457383   -4.897304379574
 H   -4.407464832197   -2.227727727105   -3.694579216145
 H   -3.019368261952   -2.875946419315   -4.590122713724
