16

 C    2.964804912107    1.696037142806    3.566355681817
 H    3.141095657735    0.922839773465    4.324227701846
 H    2.548244588020    2.604936491872    4.017587591067
 H    3.934518234374    1.955154237994    3.114348771522
 C    2.049529179739    1.174457425744    2.475730672837
 O    1.312509352259    2.003769453411    1.834568787432
 O    2.052173899928   -0.079192046424    2.210260620152
NA   -0.267767379144    0.201741060680    1.646680455536
NA    1.587844420026    0.553372860014   -0.059669778902
 C   -2.568157539729   -1.469400786547   -3.089966328811
 O   -2.560749279172   -0.213845103116   -2.833865004372
 O   -1.831143515648   -2.298737219904   -2.448815602759
 C   -3.477493997711   -1.990041706607   -4.185989403816
 H   -3.650595961960   -1.215835435013   -4.943577459092
 H   -4.445856175580   -2.249708704735   -3.740852295663
 H   -3.057759605335   -2.897927396945   -4.636395793242
