16

 C    2.986383526119    1.708391986115    3.592364381541
 H    3.162674271747    0.935194616774    4.350236401570
 H    2.569823202032    2.617291335181    4.043596290791
 H    3.956096848386    1.967509081303    3.140357471246
 C    2.071107793751    1.186812269053    2.501739372561
 O    1.334087966271    2.016124296720    1.860577487156
 O    2.073752513940   -0.066837203115    2.236269319876
NA   -0.246188765132    0.214095903989    1.672689155260
NA    1.609423034038    0.565727703323   -0.033661079178
 C   -2.606548883112   -1.491381764178   -3.136239408329
 O   -2.599140622555   -0.235826080747   -2.880138083890
 O   -1.869534859032   -2.320718197534   -2.495088682277
 C   -3.515885341094   -2.012022684238   -4.232262483334
 H   -3.688987305343   -1.237816412644   -4.989850538610
 H   -4.484247518964   -2.271689682366   -3.787125375181
 H   -3.096150948719   -2.919908374576   -4.682668872761
