16

 C    3.007962140131    1.720746829423    3.618373081266
 H    3.184252885759    0.947549460082    4.376245101295
 H    2.591401816044    2.629646178489    4.069604990516
 H    3.977675462398    1.979863924611    3.166366170971
 C    2.092686407763    1.199167112361    2.527748072286
 O    1.355666580283    2.028479140028    1.886586186881
 O    2.095331127952   -0.054482359807    2.262278019601
NA   -0.224610151120    0.226450747297    1.698697854985
NA    1.631001648050    0.578082546631   -0.007652379453
 C   -2.644940226496   -1.513362741808   -3.182512487847
 O   -2.637531965939   -0.257807058377   -2.926411163408
 O   -1.907926202416   -2.342699175165   -2.541361761795
 C   -3.554276684478   -2.034003661868   -4.278535562852
 H   -3.727378648727   -1.259797390274   -5.036123618128
 H   -4.522638862348   -2.293670659997   -3.833398454699
 H   -3.134542292103   -2.941889352207   -4.728941952279
