16

 C    3.051119368155    1.745456516039    3.670390480714
 H    3.227410113783    0.972259146698    4.428262500743
 H    2.634559044068    2.654355865105    4.121622389964
 H    4.020832690422    2.004573611227    3.218383570419
 C    2.135843635787    1.223876798977    2.579765471734
 O    1.398823808307    2.053188826644    1.938603586329
 O    2.138488355976   -0.029772673191    2.314295419049
NA   -0.181452923096    0.251160433913    1.750715254433
NA    1.674158876074    0.602792233247    0.044365019995
 C   -2.721722913263   -1.557324697070   -3.275058646883
 O   -2.714314652706   -0.301769013639   -3.018957322444
 O   -1.984708889183   -2.386661130426   -2.633907920832
 C   -3.631059371245   -2.077965617130   -4.371081721888
 H   -3.804161335494   -1.303759345536   -5.128669777165
 H   -4.599421549115   -2.337632615258   -3.925944613735
 H   -3.211324978870   -2.985851307468   -4.821488111315
