16

 C    3.266905508275    1.869004949122    3.930477477954
 H    3.443196253903    1.095807579781    4.688349497983
 H    2.850345184188    2.777904298188    4.381709387204
 H    4.236618830542    2.128122044310    3.478470567659
 C    2.351629775907    1.347425232060    2.839852468974
 O    1.614609948427    2.176737259727    2.198690583569
 O    2.354274496096    0.093775759892    2.574382416289
NA    0.034333217024    0.374708866996    2.010802251673
NA    1.889945016194    0.726340666330    0.304452017235
 C   -3.105636347100   -1.777134473376   -3.737789442064
 O   -3.098228086543   -0.521578789945   -3.481688117625
 O   -2.368622323020   -2.606470906732   -3.096638716013
 C   -4.014972805082   -2.297775393436   -4.833812517069
 H   -4.188074769331   -1.523569121842   -5.591400572346
 H   -4.983334982952   -2.557442391564   -4.388675408917
 H   -3.595238412706   -3.205661083774   -5.284218906496
