16

 C    3.288484122287    1.881359792430    3.956486177678
 H    3.464774867915    1.108162423089    4.714358197707
 H    2.871923798200    2.790259141496    4.407718086928
 H    4.258197444554    2.140476887618    3.504479267383
 C    2.373208389919    1.359780075368    2.865861168698
 O    1.636188562439    2.189092103035    2.224699283293
 O    2.375853110108    0.106130603200    2.600391116013
NA    0.055911831036    0.387063710304    2.036810951397
NA    1.911523630206    0.738695509638    0.330460716959
 C   -3.144027690483   -1.799115451006   -3.784062521582
 O   -3.136619429927   -0.543559767575   -3.527961197144
 O   -2.407013666403   -2.628451884363   -3.142911795531
 C   -4.053364148466   -2.319756371066   -4.880085596587
 H   -4.226466112715   -1.545550099472   -5.637673651864
 H   -5.021726326335   -2.579423369195   -4.434948488435
 H   -3.633629756090   -3.227642061405   -5.330491986014
