16

 C    3.310062736299    1.893714635738    3.982494877403
 H    3.486353481927    1.120517266397    4.740366897432
 H    2.893502412212    2.802613984804    4.433726786653
 H    4.279776058566    2.152831730926    3.530487967108
 C    2.394787003931    1.372134918676    2.891869868423
 O    1.657767176451    2.201446946343    2.250707983018
 O    2.397431724120    0.118485446508    2.626399815738
NA    0.077490445048    0.399418553612    2.062819651122
NA    1.933102244218    0.751050352946    0.356469416684
 C   -3.182419033867   -1.821096428637   -3.830335601100
 O   -3.175010773310   -0.565540745206   -3.574234276662
 O   -2.445405009787   -2.650432861994   -3.189184875049
 C   -4.091755491849   -2.341737348697   -4.926358676106
 H   -4.264857456098   -1.567531077103   -5.683946731382
 H   -5.060117669719   -2.601404346825   -4.481221567953
 H   -3.672021099474   -3.249623039035   -5.376765065532
