16

 C    3.331641350311    1.906069479046    4.008503577127
 H    3.507932095939    1.132872109705    4.766375597156
 H    2.915081026224    2.814968828112    4.459735486377
 H    4.301354672578    2.165186574234    3.556496666832
 C    2.416365617943    1.384489761984    2.917878568147
 O    1.679345790463    2.213801789651    2.276716682742
 O    2.419010338132    0.130840289816    2.652408515462
NA    0.099069059060    0.411773396920    2.088828350846
NA    1.954680858230    0.763405196254    0.382478116408
 C   -3.220810377251   -1.843077406268   -3.876608680619
 O   -3.213402116694   -0.587521722836   -3.620507356180
 O   -2.483796353171   -2.672413839624   -3.235457954567
 C   -4.130146835233   -2.363718326328   -4.972631755624
 H   -4.303248799482   -1.589512054734   -5.730219810900
 H   -5.098509013102   -2.623385324456   -4.527494647471
 H   -3.710412442857   -3.271604016666   -5.423038145050
