16

 C    3.374798578335    1.930779165663    4.060520976575
 H    3.551089323963    1.157581796322    4.818392996604
 H    2.958238254248    2.839678514729    4.511752885825
 H    4.344511900602    2.189896260851    3.608514066280
 C    2.459522845967    1.409199448601    2.969895967595
 O    1.722503018487    2.238511476268    2.328734082190
 O    2.462167566156    0.155549976433    2.704425914910
NA    0.142226287084    0.436483083537    2.140845750294
NA    1.997838086254    0.788114882871    0.434495515856
 C   -3.297593064018   -1.887039361529   -3.969154839655
 O   -3.290184803461   -0.631483678098   -3.713053515216
 O   -2.560579039938   -2.716375794885   -3.328004113603
 C   -4.206929522000   -2.407680281589   -5.065177914660
 H   -4.380031486249   -1.633474009995   -5.822765969936
 H   -5.175291699870   -2.667347279717   -4.620040806507
 H   -3.787195129625   -3.315565971927   -5.515584304087
