16

 C    3.439534420371    1.967843695588    4.138547075747
 H    3.615825165999    1.194646326247    4.896419095776
 H    3.022974096284    2.876743044654    4.589778984997
 H    4.409247742638    2.226960790776    3.686540165452
 C    2.524258688003    1.446263978526    3.047922066767
 O    1.787238860523    2.275576006193    2.406760181362
 O    2.526903408192    0.192614506358    2.782452014082
NA    0.206962129120    0.473547613462    2.218871849466
NA    2.062573928290    0.825179412796    0.512521615028
 C   -3.412767094169   -1.952982294421   -4.107974078209
 O   -3.405358833612   -0.697426610990   -3.851872753770
 O   -2.675753070089   -2.782318727777   -3.466823352158
 C   -4.322103552151   -2.473623214481   -5.203997153214
 H   -4.495205516400   -1.699416942887   -5.961585208491
 H   -5.290465730021   -2.733290212609   -4.758860045061
 H   -3.902369159776   -3.381508904819   -5.654403542641
