16

 N   -2.241004008641    0.193630228353   -0.067058289958
 C   -1.008878276374   -0.436660051655   -0.066103329650
 N   -0.738737340248   -1.757545526623   -0.069567518597
 C    0.589391828215   -1.975739419373   -0.054000089934
 H    0.903200111185   -3.022418151863   -0.050620519243
 N    1.601741271256   -1.067758462232   -0.040028819659
 C    1.289524527349    0.243062621017   -0.044675223559
 N    2.297151482151    1.167561258322   -0.086497060490
 H    3.228603019538    0.837031149570    0.135960873643
 H    2.064413976124    2.127532013361    0.138313184950
 C   -0.075976313525    0.619756474884   -0.053446311274
 N   -0.699505624716    1.858722175514   -0.043568102256
 C   -1.999431111873    1.550642787153   -0.052022955414
 H   -2.809484640660    2.277223588255   -0.047974817551
 H   -3.144793685811   -0.266626895481   -0.074661345891
LI    1.588494673184   -1.069913867817    1.059889305415
