16

 N   -2.240825598796    0.193659258114   -0.081872374425
 C   -1.008699866529   -0.436631021894   -0.080917414117
 N   -0.738558930403   -1.757516496862   -0.084381603064
 C    0.589570238060   -1.975710389612   -0.068814174401
 H    0.903378521030   -3.022389122102   -0.065434603710
 N    1.601919681101   -1.067729432471   -0.054842904126
 C    1.289702937194    0.243091650778   -0.059489308026
 N    2.297329891996    1.167590288083   -0.101311144957
 H    3.228781429383    0.837060179331    0.121146789176
 H    2.064592385969    2.127561043122    0.123499100483
 C   -0.075797903680    0.619785504645   -0.068260395741
 N   -0.699327214871    1.858751205275   -0.058382186723
 C   -1.999252702028    1.550671816914   -0.066837039881
 H   -2.809306230815    2.277252618016   -0.062788902018
 H   -3.144615275966   -0.266597865720   -0.089475430358
LI    1.585060374464   -1.070472675942    1.345052891422
