16

 N   -2.240766128847    0.193668934701   -0.086810402581
 C   -1.008640396580   -0.436621345307   -0.085855442273
 N   -0.738499460454   -1.757506820275   -0.089319631220
 C    0.589629708009   -1.975700713025   -0.073752202557
 H    0.903437990979   -3.022379445515   -0.070372631866
 N    1.601979151050   -1.067719755884   -0.059780932282
 C    1.289762407143    0.243101327365   -0.064427336182
 N    2.297389361945    1.167599964670   -0.106249173113
 H    3.228840899332    0.837069855918    0.116208761020
 H    2.064651855918    2.127570719709    0.118561072327
 C   -0.075738433731    0.619795181232   -0.073198423897
 N   -0.699267744922    1.858760881862   -0.063320214879
 C   -1.999193232079    1.550681493501   -0.071775068037
 H   -2.809246760866    2.277262294603   -0.067726930174
 H   -3.144555806017   -0.266588189133   -0.094413458514
LI    1.583915608224   -1.070658945317    1.440107420091
