16

 N   -2.240647188950    0.193688287875   -0.096686458893
 C   -1.008521456683   -0.436601992133   -0.095731498585
 N   -0.738380520557   -1.757487467101   -0.099195687532
 C    0.589748647906   -1.975681359851   -0.083628258869
 H    0.903556930876   -3.022360092341   -0.080248688178
 N    1.602098090947   -1.067700402710   -0.069656988594
 C    1.289881347040    0.243120680539   -0.074303392494
 N    2.297508301842    1.167619317844   -0.116125229425
 H    3.228959839229    0.837089209092    0.106332704708
 H    2.064770795815    2.127590072883    0.108685016015
 C   -0.075619493834    0.619814534406   -0.083074480209
 N   -0.699148805025    1.858780235036   -0.073196271191
 C   -1.999074292182    1.550700846675   -0.081651124349
 H   -2.809127820969    2.277281647777   -0.077602986486
 H   -3.144436866120   -0.266568835959   -0.104289514826
LI    1.581626075745   -1.071031484068    1.630216477429
