16

 N   -2.240587719002    0.193697964462   -0.101624487049
 C   -1.008461986735   -0.436592315546   -0.100669526741
 N   -0.738321050609   -1.757477790514   -0.104133715688
 C    0.589808117854   -1.975671683264   -0.088566287025
 H    0.903616400824   -3.022350415754   -0.085186716334
 N    1.602157560895   -1.067690726123   -0.074595016750
 C    1.289940816988    0.243130357126   -0.079241420650
 N    2.297567771790    1.167628994431   -0.121063257581
 H    3.229019309177    0.837098885679    0.101394676552
 H    2.064830265763    2.127599749470    0.103746987859
 C   -0.075560023886    0.619824210993   -0.088012508365
 N   -0.699089335077    1.858789911623   -0.078134299347
 C   -1.999014822234    1.550710523262   -0.086589152505
 H   -2.809068351021    2.277291324364   -0.082541014642
 H   -3.144377396172   -0.266559159372   -0.109227542982
LI    1.580481309505   -1.071217753443    1.725271006098
