16

 N   -2.240409309156    0.193726994223   -0.116438571517
 C   -1.008283576889   -0.436563285785   -0.115483611209
 N   -0.738142640763   -1.757448760753   -0.118947800156
 C    0.589986527700   -1.975642653503   -0.103380371493
 H    0.903794810670   -3.022321385993   -0.100000800802
 N    1.602335970741   -1.067661696362   -0.089409101218
 C    1.290119226834    0.243159386887   -0.094055505118
 N    2.297746181636    1.167658024192   -0.135877342049
 H    3.229197719023    0.837127915440    0.086580592084
 H    2.065008675609    2.127628779231    0.088932903391
 C   -0.075381614040    0.619853240754   -0.102826592833
 N   -0.698910925231    1.858818941384   -0.092948383815
 C   -1.998836412388    1.550739553023   -0.101403236973
 H   -2.808889941175    2.277320354125   -0.097355099110
 H   -3.144198986326   -0.266530129611   -0.124041627450
LI    1.577047010785   -1.071776561568    2.010434592105
