16

 N   -2.240349839208    0.193736670810   -0.121376599673
 C   -1.008224106941   -0.436553609198   -0.120421639365
 N   -0.738083170815   -1.757439084166   -0.123885828312
 C    0.590045997648   -1.975632976916   -0.108318399649
 H    0.903854280618   -3.022311709406   -0.104938828958
 N    1.602395440689   -1.067652019775   -0.094347129374
 C    1.290178696782    0.243169063474   -0.098993533274
 N    2.297805651584    1.167667700779   -0.140815370205
 H    3.229257188971    0.837137592027    0.081642563928
 H    2.065068145557    2.127638455818    0.083994875235
 C   -0.075322144092    0.619862917341   -0.107764620989
 N   -0.698851455283    1.858828617971   -0.097886411971
 C   -1.998776942440    1.550749229610   -0.106341265129
 H   -2.808830471227    2.277330030712   -0.102293127266
 H   -3.144139516378   -0.266520453024   -0.128979655606
LI    1.575902244545   -1.071962830944    2.105489120774
