16

 N   -2.240230899311    0.193756023984   -0.131252655985
 C   -1.008105167044   -0.436534256024   -0.130297695677
 N   -0.737964230918   -1.757419730992   -0.133761884624
 C    0.590164937545   -1.975613623742   -0.118194455961
 H    0.903973220515   -3.022292356232   -0.114814885270
 N    1.602514380586   -1.067632666601   -0.104223185686
 C    1.290297636679    0.243188416648   -0.108869589586
 N    2.297924591481    1.167687053953   -0.150691426517
 H    3.229376128868    0.837156945201    0.071766507616
 H    2.065187085454    2.127657808992    0.074118818923
 C   -0.075203204195    0.619882270515   -0.117640677301
 N   -0.698732515386    1.858847971145   -0.107762468283
 C   -1.998658002543    1.550768582784   -0.116217321441
 H   -2.808711531330    2.277349383886   -0.112169183578
 H   -3.144020576481   -0.266501099850   -0.138855711918
LI    1.573612712066   -1.072335369694    2.295598178112
