16

 N   -2.240111959414    0.193775377158   -0.141128712297
 C   -1.007986227147   -0.436514902850   -0.140173751989
 N   -0.737845291021   -1.757400377818   -0.143637940936
 C    0.590283877442   -1.975594270568   -0.128070512273
 H    0.904092160412   -3.022273003058   -0.124690941582
 N    1.602633320483   -1.067613313427   -0.114099241998
 C    1.290416576576    0.243207769822   -0.118745645898
 N    2.298043531378    1.167706407127   -0.160567482829
 H    3.229495068765    0.837176298375    0.061890451304
 H    2.065306025351    2.127677162166    0.064242762611
 C   -0.075084264298    0.619901623689   -0.127516733613
 N   -0.698613575489    1.858867324319   -0.117638524595
 C   -1.998539062646    1.550787935958   -0.126093377753
 H   -2.808592591433    2.277368737060   -0.122045239890
 H   -3.143901636584   -0.266481746676   -0.148731768230
LI    1.571323179586   -1.072707908444    2.485707235450
