16

 N   -2.239636199826    0.193852789855   -0.180632937545
 C   -1.007510467559   -0.436437490153   -0.179677977237
 N   -0.737369531433   -1.757322965121   -0.183142166184
 C    0.590759637030   -1.975516857871   -0.167574737521
 H    0.904567920000   -3.022195590361   -0.164195166830
 N    1.603109080071   -1.067535900730   -0.153603467246
 C    1.290892336164    0.243285182519   -0.158249871146
 N    2.298519290966    1.167783819824   -0.200071708077
 H    3.229970828353    0.837253711072    0.022386226056
 H    2.065781784939    2.127754574863    0.024738537363
 C   -0.074608504710    0.619979036386   -0.167020958861
 N   -0.698137815901    1.858944737016   -0.157142749843
 C   -1.998063303058    1.550865348655   -0.165597603001
 H   -2.808116831845    2.277446149757   -0.161549465138
 H   -3.143425876996   -0.266404333979   -0.188235993478
LI    1.562165049667   -1.074198063446    3.246143464801
