16

 N   -2.239517259929    0.193872143029   -0.190508993857
 C   -1.007391527662   -0.436418136979   -0.189554033549
 N   -0.737250591536   -1.757303611947   -0.193018222496
 C    0.590878576927   -1.975497504697   -0.177450793833
 H    0.904686859897   -3.022176237187   -0.174071223142
 N    1.603228019968   -1.067516547556   -0.163479523558
 C    1.291011276061    0.243304535693   -0.168125927458
 N    2.298638230863    1.167803172998   -0.209947764389
 H    3.230089768250    0.837273064246    0.012510169744
 H    2.065900724836    2.127773928037    0.014862481051
 C   -0.074489564813    0.619998389560   -0.176897015173
 N   -0.698018876004    1.858964090190   -0.167018806155
 C   -1.997944363161    1.550884701829   -0.175473659313
 H   -2.807997891948    2.277465502931   -0.171425521450
 H   -3.143306937099   -0.266384980805   -0.198112049790
LI    1.559875517188   -1.074570602196    3.436252522139
