16

 N   -2.239398320032    0.193891496203   -0.200385050169
 C   -1.007272587765   -0.436398783805   -0.199430089861
 N   -0.737131651639   -1.757284258773   -0.202894278808
 C    0.590997516824   -1.975478151523   -0.187326850145
 H    0.904805799794   -3.022156884013   -0.183947279454
 N    1.603346959865   -1.067497194382   -0.173355579870
 C    1.291130215958    0.243323888867   -0.178001983770
 N    2.298757170760    1.167822526172   -0.219823820701
 H    3.230208708147    0.837292417420    0.002634113432
 H    2.066019664733    2.127793281211    0.004986424739
 C   -0.074370624916    0.620017742734   -0.186773071485
 N   -0.697899936107    1.858983443364   -0.176894862467
 C   -1.997825423264    1.550904055003   -0.185349715625
 H   -2.807878952051    2.277484856105   -0.181301577762
 H   -3.143187997202   -0.266365627631   -0.207988106102
LI    1.557585984708   -1.074943140947    3.626361579477
