16

 N   -2.239338850083    0.193901172790   -0.205323078325
 C   -1.007213117816   -0.436389107218   -0.204368118017
 N   -0.737072181690   -1.757274582186   -0.207832306964
 C    0.591056986773   -1.975468474936   -0.192264878301
 H    0.904865269743   -3.022147207426   -0.188885307610
 N    1.603406429814   -1.067487517795   -0.178293608026
 C    1.291189685907    0.243333565454   -0.182940011926
 N    2.298816640709    1.167832202759   -0.224761848857
 H    3.230268178096    0.837302094007   -0.002303914724
 H    2.066079134682    2.127802957798    0.000048396583
 C   -0.074311154967    0.620027419321   -0.191711099641
 N   -0.697840466158    1.858993119951   -0.181832890623
 C   -1.997765953315    1.550913731590   -0.190287743781
 H   -2.807819482102    2.277494532692   -0.186239605918
 H   -3.143128527253   -0.266355951044   -0.212926134258
LI    1.556441218468   -1.075129410322    3.721416108146
