16

 N   -2.239219910186    0.193920525964   -0.215199134637
 C   -1.007094177919   -0.436369754044   -0.214244174329
 N   -0.736953241793   -1.757255229012   -0.217708363276
 C    0.591175926670   -1.975449121762   -0.202140934613
 H    0.904984209640   -3.022127854252   -0.198761363922
 N    1.603525369711   -1.067468164621   -0.188169664338
 C    1.291308625804    0.243352918628   -0.192816068238
 N    2.298935580606    1.167851555933   -0.234637905169
 H    3.230387117993    0.837321447181   -0.012179971036
 H    2.066198074579    2.127822310972   -0.009827659729
 C   -0.074192215070    0.620046772495   -0.201587155953
 N   -0.697721526261    1.859012473125   -0.191708946935
 C   -1.997647013418    1.550933084764   -0.200163800093
 H   -2.807700542205    2.277513885866   -0.196115662230
 H   -3.143009587356   -0.266336597870   -0.222802190570
LI    1.554151685988   -1.075501949072    3.911525165484
