16

 N   -2.239100970289    0.193939879138   -0.225075190949
 C   -1.006975238022   -0.436350400870   -0.224120230641
 N   -0.736834301896   -1.757235875838   -0.227584419588
 C    0.591294866567   -1.975429768588   -0.212016990925
 H    0.905103149537   -3.022108501078   -0.208637420234
 N    1.603644309608   -1.067448811447   -0.198045720650
 C    1.291427565701    0.243372271802   -0.202692124550
 N    2.299054520503    1.167870909107   -0.244513961481
 H    3.230506057890    0.837340800355   -0.022056027348
 H    2.066317014476    2.127841664146   -0.019703716041
 C   -0.074073275173    0.620066125669   -0.211463212265
 N   -0.697602586364    1.859031826299   -0.201585003247
 C   -1.997528073521    1.550952437938   -0.210039856405
 H   -2.807581602308    2.277533239040   -0.205991718542
 H   -3.142890647459   -0.266317244696   -0.232678246882
LI    1.551862153509   -1.075874487823    4.101634222821
