16

 N   -2.239041500341    0.193949555725   -0.230013219105
 C   -1.006915768074   -0.436340724283   -0.229058258797
 N   -0.736774831948   -1.757226199251   -0.232522447744
 C    0.591354336515   -1.975420092001   -0.216955019081
 H    0.905162619485   -3.022098824491   -0.213575448390
 N    1.603703779556   -1.067439134860   -0.202983748806
 C    1.291487035649    0.243381948389   -0.207630152706
 N    2.299113990451    1.167880585694   -0.249451989637
 H    3.230565527838    0.837350476942   -0.026994055504
 H    2.066376484424    2.127851340733   -0.024641744197
 C   -0.074013805225    0.620075802256   -0.216401240421
 N   -0.697543116416    1.859041502886   -0.206523031403
 C   -1.997468603573    1.550962114525   -0.214977884561
 H   -2.807522132360    2.277542915627   -0.210929746698
 H   -3.142831177511   -0.266307568109   -0.237616275038
LI    1.550717387269   -1.076060757198    4.196688751490
