16

 N   -2.238922560444    0.193968908899   -0.239889275417
 C   -1.006796828177   -0.436321371109   -0.238934315109
 N   -0.736655892051   -1.757206846077   -0.242398504056
 C    0.591473276412   -1.975400738827   -0.226831075393
 H    0.905281559382   -3.022079471317   -0.223451504702
 N    1.603822719453   -1.067419781686   -0.212859805118
 C    1.291605975546    0.243401301563   -0.217506209018
 N    2.299232930348    1.167899938868   -0.259328045949
 H    3.230684467735    0.837369830116   -0.036870111816
 H    2.066495424321    2.127870693907   -0.034517800509
 C   -0.073894865328    0.620095155430   -0.226277296733
 N   -0.697424176519    1.859060856060   -0.216399087715
 C   -1.997349663676    1.550981467699   -0.224853940873
 H   -2.807403192463    2.277562268801   -0.220805803010
 H   -3.142712237614   -0.266288214935   -0.247492331350
LI    1.548427854789   -1.076433295948    4.386797808828
