16

 N   -2.238744150598    0.193997938660   -0.254703359884
 C   -1.006618418331   -0.436292341348   -0.253748399576
 N   -0.736477482205   -1.757177816316   -0.257212588523
 C    0.591651686258   -1.975371709066   -0.241645159860
 H    0.905459969228   -3.022050441556   -0.238265589169
 N    1.604001129299   -1.067390751925   -0.227673889585
 C    1.291784385392    0.243430331324   -0.232320293485
 N    2.299411340194    1.167928968629   -0.274142130416
 H    3.230862877581    0.837398859877   -0.051684196283
 H    2.066673834167    2.127899723668   -0.049331884976
 C   -0.073716455482    0.620124185191   -0.241091381200
 N   -0.697245766673    1.859089885821   -0.231213172182
 C   -1.997171253830    1.551010497460   -0.239668025340
 H   -2.807224782617    2.277591298562   -0.235619887477
 H   -3.142533827768   -0.266259185174   -0.262306415817
LI    1.544993556069   -1.076992104074    4.671961394835
