16

 N   -2.238446800856    0.194046321595   -0.279393500664
 C   -1.006321068589   -0.436243958413   -0.278438540356
 N   -0.736180132463   -1.757129433381   -0.281902729303
 C    0.591949036000   -1.975323326131   -0.266335300640
 H    0.905757318970   -3.022002058621   -0.262955729949
 N    1.604298479041   -1.067342368990   -0.252364030365
 C    1.292081735134    0.243478714259   -0.257010434265
 N    2.299708689936    1.167977351564   -0.298832271196
 H    3.231160227323    0.837447242812   -0.076374337063
 H    2.066971183909    2.127948106603   -0.074022025756
 C   -0.073419105740    0.620172568126   -0.265781521980
 N   -0.696948416931    1.859138268756   -0.255903312962
 C   -1.996873904088    1.551058880395   -0.264358166120
 H   -2.806927432875    2.277639681497   -0.260310028257
 H   -3.142236478026   -0.266210802239   -0.286996556597
LI    1.539269724870   -1.077923450950    5.147234038180
