16

 N   -2.238268391010    0.194075351356   -0.294207585132
 C   -1.006142658743   -0.436214928652   -0.293252624824
 N   -0.736001722617   -1.757100403620   -0.296716813771
 C    0.592127445846   -1.975294296370   -0.281149385108
 H    0.905935728816   -3.021973028860   -0.277769814417
 N    1.604476888887   -1.067313339229   -0.267178114833
 C    1.292260144980    0.243507744020   -0.271824518733
 N    2.299887099782    1.168006381325   -0.313646355664
 H    3.231338637169    0.837476272573   -0.091188421531
 H    2.067149593755    2.127977136364   -0.088836110224
 C   -0.073240695894    0.620201597887   -0.280595606448
 N   -0.696770007085    1.859167298517   -0.270717397430
 C   -1.996695494242    1.551087910156   -0.279172250588
 H   -2.806749023029    2.277668711258   -0.275124112725
 H   -3.142058068180   -0.266181772478   -0.301810641065
LI    1.535835426151   -1.078482259075    5.432397624187
