16

 N   -2.238208921062    0.194085027943   -0.299145613288
 C   -1.006083188795   -0.436205252065   -0.298190652980
 N   -0.735942252669   -1.757090727033   -0.301654841927
 C    0.592186915794   -1.975284619783   -0.286087413264
 H    0.905995198764   -3.021963352273   -0.282707842573
 N    1.604536358835   -1.067303662642   -0.272116142989
 C    1.292319614928    0.243517420607   -0.276762546889
 N    2.299946569730    1.168016057912   -0.318584383820
 H    3.231398107117    0.837485949160   -0.096126449687
 H    2.067209063703    2.127986812951   -0.093774138380
 C   -0.073181225946    0.620211274474   -0.285533634604
 N   -0.696710537137    1.859176975104   -0.275655425586
 C   -1.996636024294    1.551097586743   -0.284110278744
 H   -2.806689553081    2.277678387845   -0.280062140881
 H   -3.141998598232   -0.266172095891   -0.306748669221
LI    1.534690659911   -1.078668528450    5.527452152856
