16

 N   -2.238089981165    0.194104381117   -0.309021669600
 C   -1.005964248898   -0.436185898891   -0.308066709292
 N   -0.735823312772   -1.757071373859   -0.311530898239
 C    0.592305855691   -1.975265266609   -0.295963469576
 H    0.906114138661   -3.021943999099   -0.292583898885
 N    1.604655298732   -1.067284309468   -0.281992199301
 C    1.292438554825    0.243536773781   -0.286638603201
 N    2.300065509627    1.168035411086   -0.328460440132
 H    3.231517047014    0.837505302334   -0.106002505999
 H    2.067328003600    2.128006166125   -0.103650194692
 C   -0.073062286049    0.620230627648   -0.295409690916
 N   -0.696591597240    1.859196328278   -0.285531481898
 C   -1.996517084397    1.551116939917   -0.293986335056
 H   -2.806570613184    2.277697741019   -0.289938197193
 H   -3.141879658335   -0.266152742717   -0.316624725533
LI    1.532401127431   -1.079041067201    5.717561210193
