16

 N   -2.238030511216    0.194114057704   -0.313959697756
 C   -1.005904778949   -0.436176222304   -0.313004737448
 N   -0.735763842823   -1.757061697272   -0.316468926395
 C    0.592365325640   -1.975255590022   -0.300901497732
 H    0.906173608610   -3.021934322512   -0.297521927041
 N    1.604714768681   -1.067274632881   -0.286930227457
 C    1.292498024774    0.243546450368   -0.291576631357
 N    2.300124979576    1.168045087673   -0.333398468288
 H    3.231576516963    0.837514978921   -0.110940534155
 H    2.067387473549    2.128015842712   -0.108588222848
 C   -0.073002816100    0.620240304235   -0.300347719072
 N   -0.696532127291    1.859206004865   -0.290469510054
 C   -1.996457614448    1.551126616504   -0.298924363212
 H   -2.806511143235    2.277707417606   -0.294876225349
 H   -3.141820188386   -0.266143066130   -0.321562753689
LI    1.531256361191   -1.079227336576    5.812615738862
