16

 N   -2.237911571319    0.194133410878   -0.323835754068
 C   -1.005785839052   -0.436156869130   -0.322880793760
 N   -0.735644902926   -1.757042344098   -0.326344982707
 C    0.592484265537   -1.975236236848   -0.310777554044
 H    0.906292548507   -3.021914969338   -0.307397983353
 N    1.604833708578   -1.067255279707   -0.296806283769
 C    1.292616964671    0.243565803542   -0.301452687669
 N    2.300243919473    1.168064440847   -0.343274524600
 H    3.231695456860    0.837534332095   -0.120816590467
 H    2.067506413446    2.128035195886   -0.118464279160
 C   -0.072883876203    0.620259657409   -0.310223775384
 N   -0.696413187394    1.859225358039   -0.300345566366
 C   -1.996338674551    1.551145969678   -0.308800419524
 H   -2.806392203338    2.277726770780   -0.304752281661
 H   -3.141701248489   -0.266123712956   -0.331438810001
LI    1.528966828711   -1.079599875326    6.002724796200
