16

 N   -2.237673691525    0.194172117227   -0.343587866692
 C   -1.005547959258   -0.436118162781   -0.342632906384
 N   -0.735407023132   -1.757003637749   -0.346097095331
 C    0.592722145331   -1.975197530499   -0.330529666668
 H    0.906530428301   -3.021876262989   -0.327150095977
 N    1.605071588372   -1.067216573358   -0.316558396393
 C    1.292854844465    0.243604509891   -0.321204800293
 N    2.300481799267    1.168103147196   -0.363026637224
 H    3.231933336654    0.837573038444   -0.140568703091
 H    2.067744293240    2.128073902235   -0.138216391784
 C   -0.072645996409    0.620298363758   -0.329975888008
 N   -0.696175307600    1.859264064388   -0.320097678990
 C   -1.996100794757    1.551184676027   -0.328552532148
 H   -2.806154323544    2.277765477129   -0.324504394285
 H   -3.141463368695   -0.266085006607   -0.351190922625
LI    1.524387763752   -1.080344952827    6.382942910876
