16

 N   -2.237495281680    0.194201146988   -0.358401951160
 C   -1.005369549413   -0.436089133020   -0.357446990852
 N   -0.735228613287   -1.756974607988   -0.360911179799
 C    0.592900555176   -1.975168500738   -0.345343751136
 H    0.906708838146   -3.021847233228   -0.341964180445
 N    1.605249998217   -1.067187543597   -0.331372480861
 C    1.293033254310    0.243633539652   -0.336018884761
 N    2.300660209112    1.168132176957   -0.377840721692
 H    3.232111746499    0.837602068205   -0.155382787559
 H    2.067922703085    2.128102931996   -0.153030476252
 C   -0.072467586564    0.620327393519   -0.344789972476
 N   -0.695996897755    1.859293094149   -0.334911763458
 C   -1.995922384912    1.551213705788   -0.343366616616
 H   -2.805975913699    2.277794506890   -0.339318478753
 H   -3.141284958850   -0.266055976846   -0.366005007093
LI    1.520953465032   -1.080903760953    6.668106496883
