16

 N   -2.237376341783    0.194220500162   -0.368278007472
 C   -1.005250609516   -0.436069779846   -0.367323047164
 N   -0.735109673390   -1.756955254814   -0.370787236111
 C    0.593019495073   -1.975149147564   -0.355219807448
 H    0.906827778043   -3.021827880054   -0.351840236757
 N    1.605368938114   -1.067168190423   -0.341248537173
 C    1.293152194207    0.243652892826   -0.345894941073
 N    2.300779149009    1.168151530131   -0.387716778004
 H    3.232230686396    0.837621421379   -0.165258843871
 H    2.068041642982    2.128122285170   -0.162906532564
 C   -0.072348646667    0.620346746693   -0.354666028788
 N   -0.695877957858    1.859312447323   -0.344787819770
 C   -1.995803445015    1.551233058962   -0.353242672928
 H   -2.805856973802    2.277813860064   -0.349194535065
 H   -3.141166018953   -0.266036623672   -0.375881063405
LI    1.518663932553   -1.081276299703    6.858215554221
