16

 N   -2.237019522092    0.194278559684   -0.397906176408
 C   -1.004893789825   -0.436011720324   -0.396951216100
 N   -0.734752853699   -1.756897195292   -0.400415405047
 C    0.593376314764   -1.975091088042   -0.384847976384
 H    0.907184597734   -3.021769820532   -0.381468405693
 N    1.605725757805   -1.067110130901   -0.370876706109
 C    1.293509013898    0.243710952348   -0.375523110009
 N    2.301135968700    1.168209589653   -0.417344946940
 H    3.232587506087    0.837679480901   -0.194887012807
 H    2.068398462673    2.128180344692   -0.192534701500
 C   -0.071991826976    0.620404806215   -0.384294197724
 N   -0.695521138167    1.859370506845   -0.374415988706
 C   -1.995446625324    1.551291118484   -0.382870841864
 H   -2.805500154111    2.277871919586   -0.378822704001
 H   -3.140809199262   -0.265978564150   -0.405509232341
LI    1.511795335114   -1.082393915954    7.428542726234
