16

 N   -2.236960052143    0.194288236271   -0.402844204564
 C   -1.004834319876   -0.436002043737   -0.401889244256
 N   -0.734693383750   -1.756887518705   -0.405353433203
 C    0.593435784713   -1.975081411455   -0.389786004540
 H    0.907244067683   -3.021760143945   -0.386406433849
 N    1.605785227754   -1.067100454314   -0.375814734265
 C    1.293568483847    0.243720628935   -0.380461138165
 N    2.301195438649    1.168219266240   -0.422282975096
 H    3.232646976036    0.837689157488   -0.199825040963
 H    2.068457932622    2.128190021279   -0.197472729656
 C   -0.071932357027    0.620414482802   -0.389232225880
 N   -0.695461668218    1.859380183432   -0.379354016862
 C   -1.995387155375    1.551300795071   -0.387808870020
 H   -2.805440684162    2.277881596173   -0.383760732157
 H   -3.140749729313   -0.265968887563   -0.410447260497
LI    1.510650568874   -1.082580185329    7.523597254903
