16

 N   -2.236603232452    0.194346295793   -0.432472373499
 C   -1.004477500185   -0.435943984215   -0.431517413191
 N   -0.734336564059   -1.756829459183   -0.434981602138
 C    0.593792604404   -1.975023351933   -0.419414173475
 H    0.907600887374   -3.021702084423   -0.416034602784
 N    1.606142047445   -1.067042394792   -0.405442903200
 C    1.293925303538    0.243778688457   -0.410089307100
 N    2.301552258340    1.168277325762   -0.451911144031
 H    3.233003795727    0.837747217010   -0.229453209898
 H    2.068814752313    2.128248080801   -0.227100898591
 C   -0.071575537336    0.620472542324   -0.418860394815
 N   -0.695104848527    1.859438242954   -0.408982185797
 C   -1.995030335684    1.551358854593   -0.417437038955
 H   -2.805083864471    2.277939655695   -0.413388901092
 H   -3.140392909622   -0.265910828041   -0.440075429432
LI    1.503781971435   -1.083697801580    8.093924426917
