16

 N   -2.236424822607    0.194375325554   -0.447286457967
 C   -1.004299090340   -0.435914954454   -0.446331497659
 N   -0.734158154214   -1.756800429422   -0.449795686606
 C    0.593971014249   -1.974994322172   -0.434228257943
 H    0.907779297219   -3.021673054662   -0.430848687252
 N    1.606320457290   -1.067013365031   -0.420256987668
 C    1.294103713383    0.243807718218   -0.424903391568
 N    2.301730668185    1.168306355523   -0.466725228499
 H    3.233182205572    0.837776246771   -0.244267294366
 H    2.068993162158    2.128277110562   -0.241914983059
 C   -0.071397127491    0.620501572085   -0.433674479283
 N   -0.694926438682    1.859467272715   -0.423796270265
 C   -1.994851925839    1.551387884354   -0.432251123423
 H   -2.804905454626    2.277968685456   -0.428202985560
 H   -3.140214499777   -0.265881798280   -0.454889513900
LI    1.500347672715   -1.084256609706    8.379088012924
