16

 N   -2.236365352658    0.194385002141   -0.452224486123
 C   -1.004239620391   -0.435905277867   -0.451269525815
 N   -0.734098684265   -1.756790752835   -0.454733714762
 C    0.594030484198   -1.974984645585   -0.439166286099
 H    0.907838767168   -3.021663378075   -0.435786715408
 N    1.606379927239   -1.067003688444   -0.425195015824
 C    1.294163183332    0.243817394805   -0.429841419724
 N    2.301790138134    1.168316032110   -0.471663256655
 H    3.233241675521    0.837785923358   -0.249205322522
 H    2.069052632107    2.128286787149   -0.246853011215
 C   -0.071337657542    0.620511248672   -0.438612507439
 N   -0.694866968733    1.859476949302   -0.428734298421
 C   -1.994792455890    1.551397560941   -0.437189151579
 H   -2.804845984677    2.277978362043   -0.433141013716
 H   -3.140155029828   -0.265872121693   -0.459827542056
LI    1.499202906475   -1.084442879081    8.474142541593
