16

 N   -2.236127472865    0.194423708489   -0.471976598747
 C   -1.004001740598   -0.435866571519   -0.471021638439
 N   -0.733860804472   -1.756752046487   -0.474485827386
 C    0.594268363991   -1.974945939237   -0.458918398723
 H    0.908076646961   -3.021624671727   -0.455538828032
 N    1.606617807032   -1.066964982096   -0.444947128448
 C    1.294401063125    0.243856101153   -0.449593532348
 N    2.302028017927    1.168354738458   -0.491415369279
 H    3.233479555314    0.837824629706   -0.268957435146
 H    2.069290511900    2.128325493497   -0.266605123839
 C   -0.071099777749    0.620549955020   -0.458364620063
 N   -0.694629088940    1.859515655650   -0.448486411045
 C   -1.994554576097    1.551436267289   -0.456941264203
 H   -2.804608104884    2.278017068391   -0.452893126340
 H   -3.139917150035   -0.265833415345   -0.479579654680
LI    1.494623841516   -1.085187956582    8.854360656268
