11

 H   -2.370817532282    0.183339504028    0.470046574992
 H   -2.487851637672   -0.566759167696   -1.157021680062
 H   -2.370937902695    1.219139409987   -1.013534941349
 C   -2.050896169773    0.261257993460   -0.578954397737
 S   -0.241995941755    0.073233530343   -0.710374159245
 S    0.248501573562    1.770655924527    0.474684843228
 C    2.057401798774    1.582492780124    0.343463757370
 H    2.377324877613    0.624600332110    0.778107674411
 H    2.494357282224    2.410495913979    0.921551160737
 H    2.377441886016    1.660355788384   -0.705505003337
RB   -0.003600627972   -1.020499365489    0.130408825206
