11

 H   -2.386981587726    0.257498508620    0.413038479649
 H   -2.504015693116   -0.492600163104   -1.214029775405
 H   -2.387101958139    1.293298414579   -1.070543036692
 C   -2.067060225217    0.335416998052   -0.635962493080
 S   -0.258159997199    0.147392534935   -0.767382254588
 S    0.232337518118    1.844814929119    0.417676747885
 C    2.041237743330    1.656651784716    0.286455662027
 H    2.361160822169    0.698759336702    0.721099579068
 H    2.478193226780    2.484654918571    0.864543065394
 H    2.361277830572    1.734514792976   -0.762513098680
RB    0.014291789981   -1.102587917444    0.193512584785
