11

 H   -2.427391726338    0.442896020101    0.270518241292
 H   -2.544425831728   -0.307202651623   -1.356550013762
 H   -2.427512096751    1.478695926060   -1.213063275049
 C   -2.107470363829    0.520814509533   -0.778482731437
 S   -0.298570135811    0.332790046416   -0.909902492945
 S    0.191927379506    2.030212440600    0.275156509528
 C    2.000827604718    1.842049296197    0.143935423670
 H    2.320750683557    0.884156848183    0.578579340711
 H    2.437783088168    2.670052430052    0.722022827037
 H    2.320867691960    1.919912304457   -0.905033337037
RB    0.059022834863   -1.307809297331    0.351271983732
