11

 H   -2.435473754060    0.479975522397    0.242014193621
 H   -2.552507859450   -0.270123149327   -1.385054061433
 H   -2.435594124473    1.515775428356   -1.241567322720
 C   -2.115552391551    0.557894011829   -0.806986779108
 S   -0.306652163533    0.369869548712   -0.938406540616
 S    0.183845351784    2.067291942896    0.246652461857
 C    1.992745576996    1.879128798493    0.115431375999
 H    2.312668655835    0.921236350479    0.550075293040
 H    2.429701060446    2.707131932348    0.693518779366
 H    2.312785664238    1.956991806753   -0.933537384708
RB    0.067969043840   -1.348853573308    0.382823863521
