11

 H   -2.475883892671    0.665373033878    0.099493955264
 H   -2.592917998061   -0.084725637846   -1.527574299790
 H   -2.476004263084    1.701172939837   -1.384087561077
 C   -2.155962530162    0.743291523310   -0.949507017465
 S   -0.347062302144    0.555267060193   -1.080926778973
 S    0.143435213173    2.252689454377    0.104132223500
 C    1.952335438385    2.064526309974   -0.027088862358
 H    2.272258517224    1.106633861960    0.407555054683
 H    2.389290921835    2.892529443829    0.550998541009
 H    2.272375525627    2.142389318234   -1.076057623065
RB    0.112700088723   -1.554074953196    0.540583262468
