11

 H   -2.483965920393    0.702452536175    0.070989907592
 H   -2.601000025783   -0.047646135549   -1.556078347462
 H   -2.484086290806    1.738252442134   -1.412591608749
 C   -2.164044557884    0.780371025607   -0.978011065137
 S   -0.355144329866    0.592346562490   -1.109430826645
 S    0.135353185451    2.289768956674    0.075628175828
 C    1.944253410663    2.101605812271   -0.055592910030
 H    2.264176489502    1.143713364257    0.379051007011
 H    2.381208894113    2.929608946126    0.522494493337
 H    2.264293497905    2.179468820531   -1.104561670737
RB    0.121646297699   -1.595119229173    0.572135142258
