11

 H   -2.492047948115    0.739532038471    0.042485859921
 H   -2.609082053505   -0.010566633253   -1.584582395133
 H   -2.492168318528    1.775331944430   -1.441095656420
 C   -2.172126585606    0.817450527903   -1.006515112808
 S   -0.363226357588    0.629426064786   -1.137934874316
 S    0.127271157729    2.326848458970    0.047124128157
 C    1.936171382941    2.138685314567   -0.084096957701
 H    2.256094461780    1.180792866553    0.350546959340
 H    2.373126866391    2.966688448422    0.493990445666
 H    2.256211470183    2.216548322827   -1.133065718408
RB    0.130592506676   -1.636163505151    0.603687022047
