11

 H   -2.500129975838    0.776611540767    0.013981812249
 H   -2.617164081228    0.026512869043   -1.613086442805
 H   -2.500250346251    1.812411446726   -1.469599704092
 C   -2.180208613329    0.854530030199   -1.035019160480
 S   -0.371308385311    0.666505567082   -1.166438921988
 S    0.119189130006    2.363927961266    0.018620080485
 C    1.928089355218    2.175764816863   -0.112601005373
 H    2.248012434057    1.217872368849    0.322042911668
 H    2.365044838668    3.003767950718    0.465486397994
 H    2.248129442460    2.253627825123   -1.161569766080
RB    0.139538715652   -1.677207781128    0.635238901836
