11

 H   -2.524376059004    0.887850047656   -0.071530330765
 H   -2.641410164394    0.137751375932   -1.698598585819
 H   -2.524496429417    1.923649953615   -1.555111847106
 C   -2.204454696495    0.965768537088   -1.120531303494
 S   -0.395554468477    0.777744073971   -1.251951065002
 S    0.094943046840    2.475166468155   -0.066892062529
 C    1.903843272052    2.287003323752   -0.198113148387
 H    2.223766350891    1.329110875738    0.236530768654
 H    2.340798755502    3.115006457607    0.379974254980
 H    2.223883359294    2.364866332012   -1.247081909094
RB    0.166377342582   -1.800340609060    0.729894541205
