11

 H   -2.540540114449    0.962009052248   -0.128538426108
 H   -2.657574219839    0.211910380524   -1.755606681162
 H   -2.540660484862    1.997808958207   -1.612119942449
 C   -2.220618751940    1.039927541680   -1.177539398837
 S   -0.411718523922    0.851903078563   -1.308959160345
 S    0.078778991395    2.549325472747   -0.123900157872
 C    1.887679216607    2.361162328344   -0.255121243730
 H    2.207602295446    1.403269880330    0.179522673311
 H    2.324634700057    3.189165462199    0.322966159637
 H    2.207719303849    2.439025336604   -1.304090004437
RB    0.184269760535   -1.882429161015    0.792998300783
