11

 H   -2.548622142171    0.999088554544   -0.157042473779
 H   -2.665656247561    0.248989882820   -1.784110728833
 H   -2.548742512584    2.034888460503   -1.640623990120
 C   -2.228700779662    1.077007043976   -1.206043446508
 S   -0.419800551644    0.888982580859   -1.337463208016
 S    0.070696963673    2.586404975043   -0.152404205543
 C    1.879597188885    2.398241830640   -0.283625291401
 H    2.199520267724    1.440349382626    0.151018625640
 H    2.316552672335    3.226244964495    0.294462111966
 H    2.199637276127    2.476104838900   -1.332594052108
RB    0.193215969511   -1.923473436993    0.824550180573
