11

 H   -2.556704169893    1.036168056841   -0.185546521451
 H   -2.673738275283    0.286069385117   -1.812614776505
 H   -2.556824540306    2.071967962800   -1.669128037792
 C   -2.236782807384    1.114086546273   -1.234547494180
 S   -0.427882579366    0.926062083156   -1.365967255688
 S    0.062614935951    2.623484477340   -0.180908253215
 C    1.871515161163    2.435321332937   -0.312129339073
 H    2.191438240002    1.477428884923    0.122514577968
 H    2.308470644613    3.263324466792    0.265958064294
 H    2.191555248405    2.513184341197   -1.361098099780
RB    0.202162178488   -1.964517712970    0.856102060362
