11

 H   -2.613278363949    1.295724572914   -0.385074855151
 H   -2.730312469339    0.545625901190   -2.012143110205
 H   -2.613398734362    2.331524478873   -1.868656371492
 C   -2.293357001440    1.373643062346   -1.434075827880
 S   -0.484456773422    1.185618599229   -1.565495589388
 S    0.006040741895    2.883040993413   -0.380436586915
 C    1.814940967107    2.694877849010   -0.511657672773
 H    2.134864045946    1.736985400996   -0.077013755732
 H    2.251896450557    3.522880982865    0.066429730594
 H    2.134981054349    2.772740857270   -1.560626433480
RB    0.264785641324   -2.251827644812    1.076965218888
