11

 H   -2.621360391671    1.332804075210   -0.413578902822
 H   -2.738394497061    0.582705403486   -2.040647157876
 H   -2.621480762084    2.368603981169   -1.897160419163
 C   -2.301439029162    1.410722564642   -1.462579875551
 S   -0.492538801144    1.222698101525   -1.593999637059
 S   -0.002041285827    2.920120495709   -0.408940634586
 C    1.806858939385    2.731957351306   -0.540161720444
 H    2.126782018224    1.774064903292   -0.105517803403
 H    2.243814422835    3.559960485161    0.037925682923
 H    2.126899026627    2.809820359566   -1.589130481151
RB    0.273731850300   -2.292871920790    1.108517098677
