11

 H   -2.629442419393    1.369883577507   -0.442082950493
 H   -2.746476524783    0.619784905783   -2.069151205547
 H   -2.629562789806    2.405683483466   -1.925664466834
 C   -2.309521056884    1.447802066939   -1.491083923222
 S   -0.500620828866    1.259777603822   -1.622503684730
 S   -0.010123313549    2.957199998006   -0.437444682257
 C    1.798776911663    2.769036853603   -0.568665768115
 H    2.118699990502    1.811144405589   -0.134021851074
 H    2.235732395113    3.597039987458    0.009421635252
 H    2.118816998905    2.846899861863   -1.617634528822
RB    0.282678059277   -2.333916196767    1.140068978467
