11

 H   -2.637524447115    1.406963079803   -0.470586998165
 H   -2.754558552505    0.656864408079   -2.097655253219
 H   -2.637644817528    2.442762985762   -1.954168514506
 C   -2.317603084606    1.484881569235   -1.519587970894
 S   -0.508702856588    1.296857106118   -1.651007732402
 S   -0.018205341271    2.994279500302   -0.465948729929
 C    1.790694883941    2.806116355899   -0.597169815787
 H    2.110617962780    1.848223907885   -0.162525898746
 H    2.227650367391    3.634119489754   -0.019082412420
 H    2.110734971183    2.883979364159   -1.646138576494
RB    0.291624268253   -2.374960472745    1.171620858256
