11

 H   -2.661770530282    1.518201586691   -0.556099141179
 H   -2.778804635672    0.768102914967   -2.183167396233
 H   -2.661890900695    2.554001492650   -2.039680657520
 C   -2.341849167773    1.596120076123   -1.605100113908
 S   -0.532948939755    1.408095613006   -1.736519875416
 S   -0.042451424438    3.105518007190   -0.551460872943
 C    1.766448800774    2.917354862787   -0.682681958801
 H    2.086371879613    1.959462414773   -0.248038041760
 H    2.203404284224    3.745357996642   -0.104594555434
 H    2.086488888016    2.995217871047   -1.731650719508
RB    0.318462895183   -2.498093300677    1.266276497624
