11

 H   -2.677934585726    1.592360591284   -0.613107236522
 H   -2.794968691116    0.842261919560   -2.240175491576
 H   -2.678054956139    2.628160497243   -2.096688752863
 C   -2.358013223217    1.670279080716   -1.662108209251
 S   -0.549112995199    1.482254617599   -1.793527970759
 S   -0.058615479882    3.179677011783   -0.608468968286
 C    1.750284745330    2.991513867380   -0.739690054144
 H    2.070207824169    2.033621419366   -0.305046137103
 H    2.187240228780    3.819517001235   -0.161602650777
 H    2.070324832572    3.069376875640   -1.788658814851
RB    0.336355313136   -2.580181852632    1.329380257203
