11

 H   -2.686016613449    1.629440093580   -0.641611284193
 H   -2.803050718839    0.879341421856   -2.268679539247
 H   -2.686136983862    2.665239999539   -2.125192800534
 C   -2.366095250940    1.707358583012   -1.690612256922
 S   -0.557195022922    1.519334119895   -1.822032018430
 S   -0.066697507605    3.216756514079   -0.636973015957
 C    1.742202717607    3.028593369676   -0.768194101815
 H    2.062125796446    2.070700921662   -0.333550184774
 H    2.179158201057    3.856596503531   -0.190106698448
 H    2.062242804849    3.106456377936   -1.817162862522
RB    0.345301522113   -2.621226128609    1.360932136992
