11

 H   -2.694098641171    1.666519595876   -0.670115331865
 H   -2.811132746561    0.916420924152   -2.297183586919
 H   -2.694219011584    2.702319501835   -2.153696848206
 C   -2.374177278662    1.744438085308   -1.719116304594
 S   -0.565277050644    1.556413622191   -1.850536066102
 S   -0.074779535327    3.253836016375   -0.665477063629
 C    1.734120689885    3.065672871972   -0.796698149487
 H    2.054043768724    2.107780423958   -0.362054232446
 H    2.171076173335    3.893676005827   -0.218610746120
 H    2.054160777127    3.143535880232   -1.845666910194
RB    0.354247731089   -2.662270404587    1.392484016782
