11

 H   -2.702180668893    1.703599098172   -0.698619379536
 H   -2.819214774283    0.953500426448   -2.325687634590
 H   -2.702301039306    2.739399004131   -2.182200895877
 C   -2.382259306384    1.781517587604   -1.747620352265
 S   -0.573359078366    1.593493124487   -1.879040113773
 S   -0.082861563049    3.290915518671   -0.693981111300
 C    1.726038662163    3.102752374268   -0.825202197158
 H    2.045961741002    2.144859926254   -0.390558280117
 H    2.162994145613    3.930755508123   -0.247114793791
 H    2.046078749405    3.180615382528   -1.874170957865
RB    0.363193940066   -2.703314680564    1.424035896571
