11

 H   -2.710262696615    1.740678600469   -0.727123427208
 H   -2.827296802005    0.990579928745   -2.354191682262
 H   -2.710383067028    2.776478506428   -2.210704943549
 C   -2.390341334106    1.818597089901   -1.776124399937
 S   -0.581441106088    1.630572626784   -1.907544161445
 S   -0.090943590771    3.327995020968   -0.722485158972
 C    1.717956634441    3.139831876565   -0.853706244830
 H    2.037879713280    2.181939428551   -0.419062327789
 H    2.154912117891    3.967835010420   -0.275618841463
 H    2.037996721683    3.217694884825   -1.902675005537
RB    0.372140149042   -2.744358956542    1.455587776360
