11

 H   -2.718344724337    1.777758102765   -0.755627474879
 H   -2.835378829727    1.027659431041   -2.382695729933
 H   -2.718465094750    2.813558008724   -2.239208991220
 C   -2.398423361828    1.855676592197   -1.804628447608
 S   -0.589523133810    1.667652129080   -1.936048209116
 S   -0.099025618493    3.365074523264   -0.750989206643
 C    1.709874606719    3.176911378861   -0.882210292501
 H    2.029797685558    2.219018930847   -0.447566375460
 H    2.146830090169    4.004914512716   -0.304122889134
 H    2.029914693961    3.254774387121   -1.931179053208
RB    0.381086358019   -2.785403232519    1.487139656150
