11

 H   -2.758754862948    1.963155614246   -0.898147713236
 H   -2.875788968338    1.213056942522   -2.525215968290
 H   -2.758875233361    2.998955520205   -2.381729229577
 C   -2.438833500439    2.041074103678   -1.947148685965
 S   -0.629933272421    1.853049640561   -2.078568447473
 S   -0.139435757104    3.550472034745   -0.893509445000
 C    1.669464468108    3.362308890342   -1.024730530858
 H    1.989387546947    2.404416442328   -0.590086613817
 H    2.106419951558    4.190312024197   -0.446643127491
 H    1.989504555350    3.440171898602   -2.073699291565
RB    0.425817402901   -2.990624612406    1.644899055097
