11

 H   -2.766836890671    2.000235116542   -0.926651760908
 H   -2.883870996061    1.250136444818   -2.553720015962
 H   -2.766957261084    3.036035022501   -2.410233277249
 C   -2.446915528162    2.078153605974   -1.975652733637
 S   -0.638015300144    1.890129142857   -2.107072495145
 S   -0.147517784827    3.587551537041   -0.922013492672
 C    1.661382440385    3.399388392638   -1.053234578530
 H    1.981305519224    2.441495944624   -0.618590661489
 H    2.098337923835    4.227391526493   -0.475147175163
 H    1.981422527627    3.477251400898   -2.102203339237
RB    0.434763611878   -3.031668888384    1.676450934886
