11

 H   -2.774918918393    2.037314618838   -0.955155808579
 H   -2.891953023783    1.287215947114   -2.582224063633
 H   -2.775039288806    3.073114524797   -2.438737324920
 C   -2.454997555884    2.115233108270   -2.004156781308
 S   -0.646097327866    1.927208645153   -2.135576542816
 S   -0.155599812549    3.624631039337   -0.950517540343
 C    1.653300412663    3.436467894934   -1.081738626201
 H    1.973223491502    2.478575446920   -0.647094709160
 H    2.090255896113    4.264471028789   -0.503651222834
 H    1.973340499905    3.514330903194   -2.130707386908
RB    0.443709820855   -3.072713164361    1.708002814675
