11

 H   -2.799165001560    2.148553125727   -1.040667951593
 H   -2.916199106950    1.398454454003   -2.667736206647
 H   -2.799285371973    3.184353031686   -2.524249467934
 C   -2.479243639051    2.226471615159   -2.089668924322
 S   -0.670343411033    2.038447152042   -2.221088685830
 S   -0.179845895716    3.735869546226   -1.036029683357
 C    1.629054329496    3.547706401823   -1.167250769215
 H    1.948977408335    2.589813953809   -0.732606852174
 H    2.066009812946    4.375709535678   -0.589163365848
 H    1.949094416738    3.625569410083   -2.216219529922
RB    0.470548447784   -3.195845992294    1.802658454044
