11

 H   -2.807247029282    2.185632628023   -1.069171999265
 H   -2.924281134672    1.435533956299   -2.696240254319
 H   -2.807367399695    3.221432533982   -2.552753515606
 C   -2.487325666773    2.263551117455   -2.118172971994
 S   -0.678425438755    2.075526654338   -2.249592733502
 S   -0.187927923438    3.772949048522   -1.064533731029
 C    1.620972301774    3.584785904119   -1.195754816887
 H    1.940895380613    2.626893456105   -0.761110899846
 H    2.057927785224    4.412789037974   -0.617667413520
 H    1.941012389016    3.662648912379   -2.244723577594
RB    0.479494656761   -3.236890268271    1.834210333833
