11

 H   -2.879985278782    2.519348148689   -1.325708428308
 H   -2.997019384172    1.769249476965   -2.952776683362
 H   -2.880105649195    3.555148054648   -2.809289944649
 C   -2.560063916273    2.597266638121   -2.374709401037
 S   -0.751163688255    2.409242175004   -2.506129162545
 S   -0.260666172938    4.106664569188   -1.321070160072
 C    1.548234052274    3.918501424785   -1.452291245930
 H    1.868157131113    2.960608976771   -1.017647328889
 H    1.985189535724    4.746504558640   -0.874203842563
 H    1.868274139516    3.996364433045   -2.501260006637
RB    0.560010537550   -3.606288752068    2.118177251937
