11

 H   -2.896149334226    2.593507153282   -1.382716523650
 H   -3.013183439616    1.843408481558   -3.009784778704
 H   -2.896269704639    3.629307059241   -2.866298039991
 C   -2.576227971717    2.671425642714   -2.431717496379
 S   -0.767327743699    2.483401179597   -2.563137257887
 S   -0.276830228382    4.180823573781   -1.378078255414
 C    1.532069996830    3.992660429378   -1.509299341272
 H    1.851993075669    3.034767981364   -1.074655424231
 H    1.969025480280    4.820663563233   -0.931211937905
 H    1.852110084072    4.070523437638   -2.558268101979
RB    0.577902955503   -3.688377304023    2.181281011516
