11

 H   -2.912313389671    2.667666157874   -1.439724618993
 H   -3.029347495061    1.917567486150   -3.066792874047
 H   -2.912433760084    3.703466063833   -2.923306135334
 C   -2.592392027162    2.745584647306   -2.488725591722
 S   -0.783491799144    2.557560184189   -2.620145353230
 S   -0.292994283827    4.254982578373   -1.435086350757
 C    1.515905941385    4.066819433970   -1.566307436615
 H    1.835829020224    3.108926985956   -1.131663519574
 H    1.952861424835    4.894822567825   -0.988220033248
 H    1.835946028627    4.144682442230   -2.615276197322
RB    0.595795373456   -3.770465855978    2.244384771095
