11

 H   -2.936559472837    2.778904664763   -1.525236762008
 H   -3.053593578227    2.028805993039   -3.152305017062
 H   -2.936679843250    3.814704570722   -3.008818278349
 C   -2.616638110328    2.856823154195   -2.574237734737
 S   -0.807737882310    2.668798691078   -2.705657496245
 S   -0.317240366993    4.366221085262   -1.520598493772
 C    1.491659858219    4.178057940859   -1.651819579630
 H    1.811582937058    3.220165492845   -1.217175662589
 H    1.928615341669    5.006061074714   -1.073732176263
 H    1.811699945461    4.255920949119   -2.700788340337
RB    0.622634000385   -3.893598683910    2.339040410463
