11

 H   -2.960805556004    2.890143171651   -1.610748905022
 H   -3.077839661394    2.140044499927   -3.237817160076
 H   -2.960925926417    3.925943077610   -3.094330421363
 C   -2.640884193495    2.968061661083   -2.659749877751
 S   -0.831983965477    2.780037197966   -2.791169639259
 S   -0.341486450160    4.477459592150   -1.606110636786
 C    1.467413775052    4.289296447747   -1.737331722644
 H    1.787336853891    3.331403999733   -1.302687805603
 H    1.904369258502    5.117299581602   -1.159244319277
 H    1.787453862294    4.367159456007   -2.786300483351
RB    0.649472627315   -4.016731511843    2.433696049831
