11

 H   -2.985051639171    3.001381678540   -1.696261048036
 H   -3.102085744561    2.251283006816   -3.323329303090
 H   -2.985172009584    4.037181584499   -3.179842564377
 C   -2.665130276662    3.079300167972   -2.745262020765
 S   -0.856230048644    2.891275704855   -2.876681782273
 S   -0.365732533327    4.588698099039   -1.691622779800
 C    1.443167691885    4.400534954636   -1.822843865658
 H    1.763090770724    3.442642506622   -1.388199948617
 H    1.880123175335    5.228538088491   -1.244756462291
 H    1.763207779127    4.478397962896   -2.871812626365
RB    0.676311254245   -4.139864339775    2.528351689199
