11

 H   -2.993133666893    3.038461180836   -1.724765095708
 H   -3.110167772283    2.288362509112   -3.351833350762
 H   -2.993254037306    4.074261086795   -3.208346612049
 C   -2.673212304384    3.116379670268   -2.773766068437
 S   -0.864312076366    2.928355207151   -2.905185829945
 S   -0.373814561049    4.625777601335   -1.720126827472
 C    1.435085664163    4.437614456932   -1.851347913330
 H    1.755008743002    3.479722008918   -1.416703996289
 H    1.872041147613    5.265617590787   -1.273260509963
 H    1.755125751405    4.515477465192   -2.900316674037
RB    0.685257463221   -4.180908615753    2.559903568989
