11

 H   -3.017379750059    3.149699687725   -1.810277238722
 H   -3.134413855449    2.399601016001   -3.437345493776
 H   -3.017500120472    4.185499593684   -3.293858755063
 C   -2.697458387550    3.227618177157   -2.859278211451
 S   -0.888558159532    3.039593714040   -2.990697972959
 S   -0.398060644215    4.737016108224   -1.805638970486
 C    1.410839580997    4.548852963821   -1.936860056344
 H    1.730762659836    3.590960515807   -1.502216139303
 H    1.847795064447    5.376856097676   -1.358772652977
 H    1.730879668239    4.626715972081   -2.985828817051
RB    0.712096090151   -4.304041443685    2.654559208357
