11

 H   -3.025461777782    3.186779190021   -1.838781286393
 H   -3.142495883172    2.436680518297   -3.465849541447
 H   -3.025582148195    4.222579095980   -3.322362802734
 C   -2.705540415273    3.264697679453   -2.887782259122
 S   -0.896640187255    3.076673216336   -3.019202020630
 S   -0.406142671938    4.774095610520   -1.834143018157
 C    1.402757553274    4.585932466117   -1.965364104015
 H    1.722680632113    3.628040018103   -1.530720186974
 H    1.839713036724    5.413935599972   -1.387276700648
 H    1.722797640516    4.663795474377   -3.014332864722
RB    0.721042299127   -4.345085719662    2.686111088146
