11

 H   -3.033543805504    3.223858692317   -1.867285334065
 H   -3.150577910894    2.473760020593   -3.494353589119
 H   -3.033664175917    4.259658598276   -3.350866850406
 C   -2.713622442995    3.301777181749   -2.916286306794
 S   -0.904722214977    3.113752718632   -3.047706068302
 S   -0.414224699660    4.811175112816   -1.862647065829
 C    1.394675525552    4.623011968413   -1.993868151687
 H    1.714598604391    3.665119520399   -1.559224234646
 H    1.831631009002    5.451015102268   -1.415780748320
 H    1.714715612794    4.700874976673   -3.042836912394
RB    0.729988508104   -4.386129995640    2.717662967936
