11

 H   -3.049707860948    3.298017696910   -1.924293429408
 H   -3.166741966338    2.547919025186   -3.551361684462
 H   -3.049828231361    4.333817602869   -3.407874945749
 C   -2.729786498439    3.375936186342   -2.973294402137
 S   -0.920886270421    3.187911723225   -3.104714163645
 S   -0.430388755104    4.885334117409   -1.919655161172
 C    1.378511470108    4.697170973006   -2.050876247030
 H    1.698434548947    3.739278524992   -1.616232329989
 H    1.815466953558    5.525174106861   -1.472788843663
 H    1.698551557350    4.775033981266   -3.099845007737
RB    0.747880926057   -4.468218547595    2.780766727515
