10

 H   -1.011151261356   -1.308179157883   -1.331634824126
 H   -0.109675261356   -0.105965157883   -2.306881824126
 H    0.791800738644   -1.308179157883   -1.331634824126
 C   -0.109675261356   -0.677330157883   -1.367162824126
 S   -0.109675261356    0.520544842117    0.005375175874
 C   -0.109675261356   -0.677330157883    1.377913175874
 H    0.791800738644   -1.308179157883    1.342385175874
 H   -0.109675261356   -0.105965157883    2.317632175874
 H   -1.011151261356   -1.308179157883    1.342385175874
LI    0.969491027053    0.726949263748   -0.047514678465
