10

 H   -1.021121739661   -1.310086139995   -1.331146171774
 H   -0.119645739661   -0.107872139995   -2.306393171774
 H    0.781830260339   -1.310086139995   -1.331146171774
 C   -0.119645739661   -0.679237139995   -1.366674171774
 S   -0.119645739661    0.518637860005    0.005863828226
 C   -0.119645739661   -0.679237139995    1.378401828226
 H    0.781830260339   -1.310086139995    1.342873828226
 H   -0.119645739661   -0.107872139995    2.318120828226
 H   -1.021121739661   -1.310086139995    1.342873828226
LI    1.057626574967    0.743806319965   -0.051834194689
