10

 H   -1.090915087797   -1.323435014779   -1.327725605308
 H   -0.189439087797   -0.121221014779   -2.302972605308
 H    0.712036912203   -1.323435014779   -1.327725605308
 C   -0.189439087797   -0.692586014779   -1.363253605308
 S   -0.189439087797    0.505288985221    0.009284394692
 C   -0.189439087797   -0.692586014779    1.381822394692
 H    0.712036912203   -1.323435014779    1.346294394692
 H   -0.189439087797   -0.121221014779    2.321541394692
 H   -1.090915087797   -1.323435014779    1.346294394692
LI    1.674575410365    0.861805713491   -0.082070808258
