10

 H   -1.110856044407   -1.327248979003   -1.326748300604
 H   -0.209380044407   -0.125034979003   -2.301995300604
 H    0.692095955593   -1.327248979003   -1.326748300604
 C   -0.209380044407   -0.696399979003   -1.362276300604
 S   -0.209380044407    0.501475020997    0.010261699396
 C   -0.209380044407   -0.696399979003    1.382799699396
 H    0.692095955593   -1.327248979003    1.347271699396
 H   -0.209380044407   -0.125034979003    2.322518699396
 H   -1.110856044407   -1.327248979003    1.347271699396
LI    1.850846506193    0.895519825927   -0.090709840706
