10

 H   -1.120826522712   -1.329155961115   -1.326259648252
 H   -0.219350522712   -0.126941961115   -2.301506648252
 H    0.682125477288   -1.329155961115   -1.326259648252
 C   -0.219350522712   -0.698306961115   -1.361787648252
 S   -0.219350522712    0.499568038885    0.010750351748
 C   -0.219350522712   -0.698306961115    1.383288351748
 H    0.682125477288   -1.329155961115    1.347760351748
 H   -0.219350522712   -0.126941961115    2.323007351748
 H   -1.120826522712   -1.329155961115    1.347760351748
LI    1.938982054107    0.912376882145   -0.095029356930
