10

 H   -1.170678914238   -1.338690871676   -1.323816386490
 H   -0.269202914238   -0.136476871676   -2.299063386490
 H    0.632273085762   -1.338690871676   -1.323816386490
 C   -0.269202914238   -0.707841871676   -1.359344386490
 S   -0.269202914238    0.490033128324    0.013193613510
 C   -0.269202914238   -0.707841871676    1.385731613510
 H    0.632273085762   -1.338690871676    1.350203613510
 H   -0.269202914238   -0.136476871676    2.325450613510
 H   -1.170678914238   -1.338690871676    1.350203613510
LI    2.379659793676    0.996662163235   -0.116626938051
