10

 H   -1.250442740678   -1.353946728572   -1.319907167673
 H   -0.348966740678   -0.151732728572   -2.295154167673
 H    0.552509259322   -1.353946728572   -1.319907167673
 C   -0.348966740678   -0.723097728572   -1.355435167673
 S   -0.348966740678    0.474777271428    0.017102832327
 C   -0.348966740678   -0.723097728572    1.389640832327
 H    0.552509259322   -1.353946728572    1.354112832327
 H   -0.348966740678   -0.151732728572    2.329359832327
 H   -1.250442740678   -1.353946728572    1.354112832327
LI    3.084744176988    1.131518612979   -0.151183067844
