10

 H   -1.290324653899   -1.361574657021   -1.317952558264
 H   -0.388848653899   -0.159360657021   -2.293199558264
 H    0.512627346101   -1.361574657021   -1.317952558264
 C   -0.388848653899   -0.730725657021   -1.353480558264
 S   -0.388848653899    0.467149342979    0.019057441736
 C   -0.388848653899   -0.730725657021    1.391595441736
 H    0.512627346101   -1.361574657021    1.356067441736
 H   -0.388848653899   -0.159360657021    2.331314441736
 H   -1.290324653899   -1.361574657021    1.356067441736
LI    3.437286368644    1.198946837850   -0.168461132740
