10

 H   -1.310265610509   -1.365388621245   -1.316975253560
 H   -0.408789610509   -0.163174621245   -2.292222253560
 H    0.492686389491   -1.365388621245   -1.316975253560
 C   -0.408789610509   -0.734539621245   -1.352503253560
 S   -0.408789610509    0.463335378755    0.020034746440
 C   -0.408789610509   -0.734539621245    1.392572746440
 H    0.492686389491   -1.365388621245    1.357044746440
 H   -0.408789610509   -0.163174621245    2.332291746440
 H   -1.310265610509   -1.365388621245    1.357044746440
LI    3.613557464472    1.232660950286   -0.177100165188
