10

 H   -1.350147523729   -1.373016549693   -1.315020644151
 H   -0.448671523729   -0.170802549693   -2.290267644151
 H    0.452804476271   -1.373016549693   -1.315020644151
 C   -0.448671523729   -0.742167549693   -1.350548644151
 S   -0.448671523729    0.455707450307    0.021989355849
 C   -0.448671523729   -0.742167549693    1.394527355849
 H    0.452804476271   -1.373016549693    1.358999355849
 H   -0.448671523729   -0.170802549693    2.334246355849
 H   -1.350147523729   -1.373016549693    1.358999355849
LI    3.966099656127    1.300089175158   -0.194378230085
