10

 H   -1.390029436950   -1.380644478141   -1.313066034742
 H   -0.488553436950   -0.178430478141   -2.288313034742
 H    0.412922563050   -1.380644478141   -1.313066034742
 C   -0.488553436950   -0.749795478141   -1.348594034742
 S   -0.488553436950    0.448079521859    0.023943965258
 C   -0.488553436950   -0.749795478141    1.396481965258
 H    0.412922563050   -1.380644478141    1.360953965258
 H   -0.488553436950   -0.178430478141    2.336200965258
 H   -1.390029436950   -1.380644478141    1.360953965258
LI    4.318641847783    1.367517400030   -0.211656294981
