10

 H   -1.419940871865   -1.386365424477   -1.311600077685
 H   -0.518464871865   -0.184151424477   -2.286847077685
 H    0.383011128135   -1.386365424477   -1.311600077685
 C   -0.518464871865   -0.755516424477   -1.347128077685
 S   -0.518464871865    0.442358575523    0.025409922315
 C   -0.518464871865   -0.755516424477    1.397947922315
 H    0.383011128135   -1.386365424477    1.362419922315
 H   -0.518464871865   -0.184151424477    2.337666922315
 H   -1.419940871865   -1.386365424477    1.362419922315
LI    4.583048491525    1.418088568684   -0.224614843654
