10

 H   -1.439881828475   -1.390179388702   -1.310622772981
 H   -0.538405828475   -0.187965388702   -2.285869772981
 H    0.363070171525   -1.390179388702   -1.310622772981
 C   -0.538405828475   -0.759330388702   -1.346150772981
 S   -0.538405828475    0.438544611298    0.026387227019
 C   -0.538405828475   -0.759330388702    1.398925227019
 H    0.363070171525   -1.390179388702    1.363397227019
 H   -0.538405828475   -0.187965388702    2.338644227019
 H   -1.439881828475   -1.390179388702    1.363397227019
LI    4.759319587353    1.451802681120   -0.233253876102
