10

 H   -1.459822785085   -1.393993352926   -1.309645468277
 H   -0.558346785085   -0.191779352926   -2.284892468277
 H    0.343129214915   -1.393993352926   -1.309645468277
 C   -0.558346785085   -0.763144352926   -1.345173468277
 S   -0.558346785085    0.434730647074    0.027364531723
 C   -0.558346785085   -0.763144352926    1.399902531723
 H    0.343129214915   -1.393993352926    1.364374531723
 H   -0.558346785085   -0.191779352926    2.339621531723
 H   -1.459822785085   -1.393993352926    1.364374531723
LI    4.935590683181    1.485516793556   -0.241892908550
