10

 H   -1.519645654916   -1.405435245598   -1.306713554163
 H   -0.618169654916   -0.203221245598   -2.281960554163
 H    0.283306345084   -1.405435245598   -1.306713554163
 C   -0.618169654916   -0.774586245598   -1.342241554163
 S   -0.618169654916    0.423288754402    0.030296445837
 C   -0.618169654916   -0.774586245598    1.402834445837
 H    0.283306345084   -1.405435245598    1.367306445837
 H   -0.618169654916   -0.203221245598    2.342553445837
 H   -1.519645654916   -1.405435245598    1.367306445837
LI    5.464403970664    1.586659130863   -0.267810005895
