10

 H   -1.529616133221   -1.407342227710   -1.306224901811
 H   -0.628140133221   -0.205128227710   -2.281471901811
 H    0.273335866779   -1.407342227710   -1.306224901811
 C   -0.628140133221   -0.776493227710   -1.341752901811
 S   -0.628140133221    0.421381772290    0.030785098189
 C   -0.628140133221   -0.776493227710    1.403323098189
 H    0.273335866779   -1.407342227710    1.367795098189
 H   -0.628140133221   -0.205128227710    2.343042098189
 H   -1.529616133221   -1.407342227710    1.367795098189
LI    5.552539518578    1.603516187081   -0.272129522119
