10

 H   -1.559527568136   -1.413063174046   -1.304758944755
 H   -0.658051568136   -0.210849174046   -2.280005944755
 H    0.243424431864   -1.413063174046   -1.304758944755
 C   -0.658051568136   -0.782214174046   -1.340286944755
 S   -0.658051568136    0.415660825954    0.032251055245
 C   -0.658051568136   -0.782214174046    1.404789055245
 H    0.243424431864   -1.413063174046    1.369261055245
 H   -0.658051568136   -0.210849174046    2.344508055245
 H   -1.559527568136   -1.413063174046    1.369261055245
LI    5.816946162320    1.654087355735   -0.285088070791
