10

 H   -1.619350437967   -1.424505066719   -1.301827030641
 H   -0.717874437967   -0.222291066719   -2.277074030641
 H    0.183601562033   -1.424505066719   -1.301827030641
 C   -0.717874437967   -0.793656066719   -1.337355030641
 S   -0.717874437967    0.404218933281    0.035182969359
 C   -0.717874437967   -0.793656066719    1.407720969359
 H    0.183601562033   -1.424505066719    1.372192969359
 H   -0.717874437967   -0.222291066719    2.347439969359
 H   -1.619350437967   -1.424505066719    1.372192969359
LI    6.345759449804    1.755229693043   -0.311005168136
