10

 H   -1.659232351187   -1.432132995167   -1.299872421232
 H   -0.757756351187   -0.229918995167   -2.275119421232
 H    0.143719648813   -1.432132995167   -1.299872421232
 C   -0.757756351187   -0.801283995167   -1.335400421232
 S   -0.757756351187    0.396591004833    0.037137578768
 C   -0.757756351187   -0.801283995167    1.409675578768
 H    0.143719648813   -1.432132995167    1.374147578768
 H   -0.757756351187   -0.229918995167    2.349394578768
 H   -1.659232351187   -1.432132995167    1.374147578768
LI    6.698301641460    1.822657917915   -0.328283233032
