10

 H   -1.679173307798   -1.435946959391   -1.298895116528
 H   -0.777697307798   -0.233732959391   -2.274142116528
 H    0.123778692202   -1.435946959391   -1.298895116528
 C   -0.777697307798   -0.805097959391   -1.334423116528
 S   -0.777697307798    0.392777040609    0.038114883472
 C   -0.777697307798   -0.805097959391    1.410652883472
 H    0.123778692202   -1.435946959391    1.375124883472
 H   -0.777697307798   -0.233732959391    2.350371883472
 H   -1.679173307798   -1.435946959391    1.375124883472
LI    6.874572737288    1.856372030351   -0.336922265480
