10

 H   -1.709084742713   -1.441667905727   -1.297429159471
 H   -0.807608742713   -0.239453905727   -2.272676159471
 H    0.093867257287   -1.441667905727   -1.297429159471
 C   -0.807608742713   -0.810818905727   -1.332957159471
 S   -0.807608742713    0.387056094273    0.039580840529
 C   -0.807608742713   -0.810818905727    1.412118840529
 H    0.093867257287   -1.441667905727    1.376590840529
 H   -0.807608742713   -0.239453905727    2.351837840529
 H   -1.709084742713   -1.441667905727    1.376590840529
LI    7.138979381029    1.906943199005   -0.349880814153
