10

 H   -1.719055221018   -1.443574887839   -1.296940507119
 H   -0.817579221018   -0.241360887839   -2.272187507119
 H    0.083896778982   -1.443574887839   -1.296940507119
 C   -0.817579221018   -0.812725887839   -1.332468507119
 S   -0.817579221018    0.385149112161    0.040069492881
 C   -0.817579221018   -0.812725887839    1.412607492881
 H    0.083896778982   -1.443574887839    1.377079492881
 H   -0.817579221018   -0.241360887839    2.352326492881
 H   -1.719055221018   -1.443574887839    1.377079492881
LI    7.227114928943    1.923800255223   -0.354200330377
