10

 H   -1.738996177628   -1.447388852064   -1.295963202415
 H   -0.837520177628   -0.245174852064   -2.271210202415
 H    0.063955822372   -1.447388852064   -1.295963202415
 C   -0.837520177628   -0.816539852064   -1.331491202415
 S   -0.837520177628    0.381335147936    0.041046797585
 C   -0.837520177628   -0.816539852064    1.413584797585
 H    0.063955822372   -1.447388852064    1.378056797585
 H   -0.837520177628   -0.245174852064    2.353303797585
 H   -1.738996177628   -1.447388852064    1.378056797585
LI    7.403386024771    1.957514367659   -0.362839362825
