10

 H   -1.758937134238   -1.451202816288   -1.294985897710
 H   -0.857461134238   -0.248988816288   -2.270232897710
 H    0.044014865762   -1.451202816288   -1.294985897710
 C   -0.857461134238   -0.820353816288   -1.330513897710
 S   -0.857461134238    0.377521183712    0.042024102290
 C   -0.857461134238   -0.820353816288    1.414562102290
 H    0.044014865762   -1.451202816288    1.379034102290
 H   -0.857461134238   -0.248988816288    2.354281102290
 H   -1.758937134238   -1.451202816288    1.379034102290
LI    7.579657120599    1.991228480095   -0.371478395273
