10

 H   -1.768907612544   -1.453109798400   -1.294497245358
 H   -0.867431612544   -0.250895798400   -2.269744245358
 H    0.034044387456   -1.453109798400   -1.294497245358
 C   -0.867431612544   -0.822260798400   -1.330025245358
 S   -0.867431612544    0.375614201600    0.042512754642
 C   -0.867431612544   -0.822260798400    1.415050754642
 H    0.034044387456   -1.453109798400    1.379522754642
 H   -0.867431612544   -0.250895798400    2.354769754642
 H   -1.768907612544   -1.453109798400    1.379522754642
LI    7.667792668513    2.008085536312   -0.375797911497
