10

 H   -1.788848569154   -1.456923762624   -1.293519940654
 H   -0.887372569154   -0.254709762624   -2.268766940654
 H    0.014103430846   -1.456923762624   -1.293519940654
 C   -0.887372569154   -0.826074762624   -1.329047940654
 S   -0.887372569154    0.371800237376    0.043490059346
 C   -0.887372569154   -0.826074762624    1.416028059346
 H    0.014103430846   -1.456923762624    1.380500059346
 H   -0.887372569154   -0.254709762624    2.355747059346
 H   -1.788848569154   -1.456923762624    1.380500059346
LI    7.844063764341    2.041799648748   -0.384436943946
