10

 H   -1.838700960679   -1.466458673184   -1.291076678893
 H   -0.937224960679   -0.264244673184   -2.266323678893
 H   -0.035748960679   -1.466458673184   -1.291076678893
 C   -0.937224960679   -0.835609673184   -1.326604678893
 S   -0.937224960679    0.362265326816    0.045933321107
 C   -0.937224960679   -0.835609673184    1.418471321107
 H   -0.035748960679   -1.466458673184    1.382943321107
 H   -0.937224960679   -0.264244673184    2.358190321107
 H   -1.838700960679   -1.466458673184    1.382943321107
LI    8.284741503911    2.126084929838   -0.406034525066
