10

 H   -1.868612395594   -1.472179619520   -1.289610721836
 H   -0.967136395594   -0.269965619520   -2.264857721836
 H   -0.065660395594   -1.472179619520   -1.289610721836
 C   -0.967136395594   -0.841330619520   -1.325138721836
 S   -0.967136395594    0.356544380480    0.047399278164
 C   -0.967136395594   -0.841330619520    1.419937278164
 H   -0.065660395594   -1.472179619520    1.384409278164
 H   -0.967136395594   -0.269965619520    2.359656278164
 H   -1.868612395594   -1.472179619520    1.384409278164
LI    8.549148147652    2.176656098492   -0.418993073738
