10

 H   -1.888553352205   -1.475993583745   -1.288633417132
 H   -0.987077352205   -0.273779583745   -2.263880417132
 H   -0.085601352205   -1.475993583745   -1.288633417132
 C   -0.987077352205   -0.845144583745   -1.324161417132
 S   -0.987077352205    0.352730416255    0.048376582868
 C   -0.987077352205   -0.845144583745    1.420914582868
 H   -0.085601352205   -1.475993583745    1.385386582868
 H   -0.987077352205   -0.273779583745    2.360633582868
 H   -1.888553352205   -1.475993583745    1.385386582868
LI    8.725419243480    2.210370210928   -0.427632106187
