23

 C   -4.051555041552    0.390581282947    0.000000000000
 C   -3.016745041552   -0.693488717053    0.000000000000
 O   -3.554075041552   -1.912998717053    0.000000000000
 C   -2.602335041552   -3.009948717053    0.000000000000
 O   -1.795015041552   -0.507038717053    0.000000000000
 H   -3.559365041552    1.367891282947    0.000000000000
 H   -4.691675041552    0.284971282947    0.886550000000
 H   -4.691675041552    0.284971282947   -0.886550000000
 H   -3.213825041552   -3.915748717053    0.000000000000
 H   -1.979235041552   -2.958308717053    0.901780000000
 H   -1.979235041552   -2.958308717053   -0.901780000000
 K    0.545554958448    0.154101282947    0.000000000000
 O    1.507899371296    0.425934377069    0.000000000000
 C    2.729634349249    0.612382809745    0.000000000000
 O    3.266967029080    1.831903048890    0.000000000000
 C    2.315225829348    2.928856050223    0.000000000000
 H    2.926714128607    3.834653353304    0.000000000000
 H    1.692125421450    2.877211787840   -0.901782612795
 H    1.692125421450    2.877211787840    0.901782612795
 C    3.764437689989   -0.471680756146    0.000000000000
 H    3.272256810354   -1.448993932269    0.000000000000
 H    4.404565447940   -0.366074180118   -0.886544821766
 H    4.404565447940   -0.366074180118    0.886544821766
