23

 C   -4.127741870843    0.369060815574    0.000000000000
 C   -3.092931870843   -0.715009184426    0.000000000000
 O   -3.630261870843   -1.934519184426    0.000000000000
 C   -2.678521870843   -3.031469184426    0.000000000000
 O   -1.871201870843   -0.528559184426    0.000000000000
 H   -3.635551870843    1.346370815574    0.000000000000
 H   -4.767861870843    0.263450815574    0.886550000000
 H   -4.767861870843    0.263450815574   -0.886550000000
 H   -3.290011870843   -3.937269184426    0.000000000000
 H   -2.055421870843   -2.979829184426    0.901780000000
 H   -2.055421870843   -2.979829184426   -0.901780000000
 K    0.469368129157    0.132580815574    0.000000000000
 O    1.624181424575    0.458780528522    0.000000000000
 C    2.845916402527    0.645228961197    0.000000000000
 O    3.383249082359    1.864749200343    0.000000000000
 C    2.431507882626    2.961702201675    0.000000000000
 H    3.042996181885    3.867499504756    0.000000000000
 H    1.808407474728    2.910057939292   -0.901782612795
 H    1.808407474728    2.910057939292    0.901782612795
 C    3.880719743267   -0.438834604694    0.000000000000
 H    3.388538863632   -1.416147780816    0.000000000000
 H    4.520847501219   -0.333228028666   -0.886544821766
 H    4.520847501219   -0.333228028666    0.886544821766
