23

 C   -4.280115529425    0.326019880830    0.000000000000
 C   -3.245305529425   -0.758050119170    0.000000000000
 O   -3.782635529425   -1.977560119170    0.000000000000
 C   -2.830895529425   -3.074510119170    0.000000000000
 O   -2.023575529425   -0.571600119170    0.000000000000
 H   -3.787925529425    1.303329880830    0.000000000000
 H   -4.920235529425    0.220409880830    0.886550000000
 H   -4.920235529425    0.220409880830   -0.886550000000
 H   -3.442385529425   -3.980310119170    0.000000000000
 H   -2.207795529425   -3.022870119170    0.901780000000
 H   -2.207795529425   -3.022870119170   -0.901780000000
 K    0.316994470575    0.089539880830    0.000000000000
 O    1.856745531131    0.524472831426    0.000000000000
 C    3.078480509084    0.710921264102    0.000000000000
 O    3.615813188915    1.930441503247    0.000000000000
 C    2.664071989183    3.027394504579    0.000000000000
 H    3.275560288442    3.933191807660    0.000000000000
 H    2.040971581285    2.975750242196   -0.901782612795
 H    2.040971581285    2.975750242196    0.901782612795
 C    4.113283849824   -0.373142301790    0.000000000000
 H    3.621102970189   -1.350455477912    0.000000000000
 H    4.753411607775   -0.267535725761   -0.886544821766
 H    4.753411607775   -0.267535725761    0.886544821766
