23

 C   -4.356302358717    0.304499413458    0.000000000000
 C   -3.321492358717   -0.779570586542    0.000000000000
 O   -3.858822358717   -1.999080586542    0.000000000000
 C   -2.907082358717   -3.096030586542    0.000000000000
 O   -2.099762358717   -0.593120586542    0.000000000000
 H   -3.864112358717    1.281809413458    0.000000000000
 H   -4.996422358717    0.198889413458    0.886550000000
 H   -4.996422358717    0.198889413458   -0.886550000000
 H   -3.518572358717   -4.001830586542    0.000000000000
 H   -2.283982358717   -3.044390586542    0.901780000000
 H   -2.283982358717   -3.044390586542   -0.901780000000
 K    0.240807641283    0.068019413458    0.000000000000
 O    1.973027584410    0.557318982878    0.000000000000
 C    3.194762562362    0.743767415554    0.000000000000
 O    3.732095242194    1.963287654699    0.000000000000
 C    2.780354042461    3.060240656031    0.000000000000
 H    3.391842341721    3.966037959113    0.000000000000
 H    2.157253634563    3.008596393649   -0.901782612795
 H    2.157253634563    3.008596393649    0.901782612795
 C    4.229565903102   -0.340296150338    0.000000000000
 H    3.737385023467   -1.317609326460    0.000000000000
 H    4.869693661054   -0.234689574309   -0.886544821766
 H    4.869693661054   -0.234689574309    0.886544821766
