23

 C   -7.479962359657   -0.577839748807    0.000000000000
 C   -6.445152359657   -1.661909748807    0.000000000000
 O   -6.982482359657   -2.881419748807    0.000000000000
 C   -6.030742359657   -3.978369748807    0.000000000000
 O   -5.223422359657   -1.475459748807    0.000000000000
 H   -6.987772359657    0.399470251193    0.000000000000
 H   -8.120082359657   -0.683449748807    0.886550000000
 H   -8.120082359657   -0.683449748807   -0.886550000000
 H   -6.642232359657   -4.884169748807    0.000000000000
 H   -5.407642359657   -3.926729748807    0.901780000000
 H   -5.407642359657   -3.926729748807   -0.901780000000
 K   -2.882852359657   -0.814319748807    0.000000000000
 O    6.740591768823    1.904011192418    0.000000000000
 C    7.962326746775    2.090459625094    0.000000000000
 O    8.499659426607    3.309979864239    0.000000000000
 C    7.547918226874    4.406932865571    0.000000000000
 H    8.159406526134    5.312730168653    0.000000000000
 H    6.924817818976    4.355288603189   -0.901782612795
 H    6.924817818976    4.355288603189    0.901782612795
 C    8.997130087515    1.006396059202    0.000000000000
 H    8.504949207881    0.029082883080    0.000000000000
 H    9.637257845467    1.112002635231   -0.886544821766
 H    9.637257845467    1.112002635231    0.886544821766
