23

 C   -4.470582602654    0.272218712399    0.000000000000
 C   -3.435772602654   -0.811851287601    0.000000000000
 O   -3.973102602654   -2.031361287601    0.000000000000
 C   -3.021362602654   -3.128311287601    0.000000000000
 O   -2.214042602654   -0.625401287601    0.000000000000
 H   -3.978392602654    1.249528712399    0.000000000000
 H   -5.110702602654    0.166608712399    0.886550000000
 H   -5.110702602654    0.166608712399   -0.886550000000
 H   -3.632852602654   -4.034111287601    0.000000000000
 H   -2.398262602654   -3.076671287601    0.901780000000
 H   -2.398262602654   -3.076671287601   -0.901780000000
 K    0.126527397346    0.035738712399    0.000000000000
 O    2.147450664327    0.606588210056    0.000000000000
 C    3.369185642280    0.793036642732    0.000000000000
 O    3.906518322111    2.012556881877    0.000000000000
 C    2.954777122379    3.109509883210    0.000000000000
 H    3.566265421638    4.015307186291    0.000000000000
 H    2.331676714481    3.057865620827   -0.901782612795
 H    2.331676714481    3.057865620827    0.901782612795
 C    4.403988983020   -0.291026923159    0.000000000000
 H    3.911808103385   -1.268340099281    0.000000000000
 H    5.044116740971   -0.185420347131   -0.886544821766
 H    5.044116740971   -0.185420347131    0.886544821766
