23

 C   -4.546769431945    0.250698245027    0.000000000000
 C   -3.511959431945   -0.833371754973    0.000000000000
 O   -4.049289431945   -2.052881754973    0.000000000000
 C   -3.097549431945   -3.149831754973    0.000000000000
 O   -2.290229431945   -0.646921754973    0.000000000000
 H   -4.054579431945    1.228008245027    0.000000000000
 H   -5.186889431945    0.145088245027    0.886550000000
 H   -5.186889431945    0.145088245027   -0.886550000000
 H   -3.709039431945   -4.055631754973    0.000000000000
 H   -2.474449431945   -3.098191754973    0.901780000000
 H   -2.474449431945   -3.098191754973   -0.901780000000
 K    0.050340568055    0.014218245027    0.000000000000
 O    2.263732717606    0.639434361509    0.000000000000
 C    3.485467695558    0.825882794184    0.000000000000
 O    4.022800375390    2.045403033330    0.000000000000
 C    3.071059175657    3.142356034662    0.000000000000
 H    3.682547474916    4.048153337743    0.000000000000
 H    2.447958767759    3.090711772279   -0.901782612795
 H    2.447958767759    3.090711772279    0.901782612795
 C    4.520271036298   -0.258180771707    0.000000000000
 H    4.028090156663   -1.235493947829    0.000000000000
 H    5.160398794250   -0.152574195679   -0.886544821766
 H    5.160398794250   -0.152574195679    0.886544821766
