23

 C   -4.622956261236    0.229177777654    0.000000000000
 C   -3.588146261236   -0.854892222346    0.000000000000
 O   -4.125476261236   -2.074402222346    0.000000000000
 C   -3.173736261236   -3.171352222346    0.000000000000
 O   -2.366416261236   -0.668442222346    0.000000000000
 H   -4.130766261236    1.206487777654    0.000000000000
 H   -5.263076261236    0.123567777654    0.886550000000
 H   -5.263076261236    0.123567777654   -0.886550000000
 H   -3.785226261236   -4.077152222346    0.000000000000
 H   -2.550636261236   -3.119712222346    0.901780000000
 H   -2.550636261236   -3.119712222346   -0.901780000000
 K   -0.025846261236   -0.007302222346    0.000000000000
 O    2.380014770884    0.672280512961    0.000000000000
 C    3.601749748837    0.858728945637    0.000000000000
 O    4.139082428668    2.078249184782    0.000000000000
 C    3.187341228936    3.175202186114    0.000000000000
 H    3.798829528195    4.080999489195    0.000000000000
 H    2.564240821037    3.123557923731   -0.901782612795
 H    2.564240821037    3.123557923731    0.901782612795
 C    4.636553089577   -0.225334620255    0.000000000000
 H    4.144372209942   -1.202647796377    0.000000000000
 H    5.276680847528   -0.119728044227   -0.886544821766
 H    5.276680847528   -0.119728044227    0.886544821766
