23

 C   -4.661049675882    0.218417543968    0.000000000000
 C   -3.626239675882   -0.865652456032    0.000000000000
 O   -4.163569675882   -2.085162456032    0.000000000000
 C   -3.211829675882   -3.182112456032    0.000000000000
 O   -2.404509675882   -0.679202456032    0.000000000000
 H   -4.168859675882    1.195727543968    0.000000000000
 H   -5.301169675882    0.112807543968    0.886550000000
 H   -5.301169675882    0.112807543968   -0.886550000000
 H   -3.823319675882   -4.087912456032    0.000000000000
 H   -2.588729675882   -3.130472456032    0.901780000000
 H   -2.588729675882   -3.130472456032   -0.901780000000
 K   -0.063939675882   -0.018062456032    0.000000000000
 O    2.438155797523    0.688703588687    0.000000000000
 C    3.659890775476    0.875152021363    0.000000000000
 O    4.197223455307    2.094672260508    0.000000000000
 C    3.245482255575    3.191625261840    0.000000000000
 H    3.856970554834    4.097422564921    0.000000000000
 H    2.622381847677    3.139980999457   -0.901782612795
 H    2.622381847677    3.139980999457    0.901782612795
 C    4.694694116216   -0.208911544529    0.000000000000
 H    4.202513236581   -1.186224720651    0.000000000000
 H    5.334821874167   -0.103304968500   -0.886544821766
 H    5.334821874167   -0.103304968500    0.886544821766
