23

 C   -4.737236505173    0.196897076596    0.000000000000
 C   -3.702426505173   -0.887172923404    0.000000000000
 O   -4.239756505173   -2.106682923404    0.000000000000
 C   -3.288016505173   -3.203632923404    0.000000000000
 O   -2.480696505173   -0.700722923404    0.000000000000
 H   -4.245046505173    1.174207076596    0.000000000000
 H   -5.377356505173    0.091287076596    0.886550000000
 H   -5.377356505173    0.091287076596   -0.886550000000
 H   -3.899506505173   -4.109432923404    0.000000000000
 H   -2.664916505173   -3.151992923404    0.901780000000
 H   -2.664916505173   -3.151992923404   -0.901780000000
 K   -0.140126505173   -0.039582923404    0.000000000000
 O    2.554437850802    0.721549740139    0.000000000000
 C    3.776172828754    0.907998172815    0.000000000000
 O    4.313505508586    2.127518411960    0.000000000000
 C    3.361764308853    3.224471413292    0.000000000000
 H    3.973252608112    4.130268716374    0.000000000000
 H    2.738663900955    3.172827150910   -0.901782612795
 H    2.738663900955    3.172827150910    0.901782612795
 C    4.810976169494   -0.176065393077    0.000000000000
 H    4.318795289859   -1.153378569199    0.000000000000
 H    5.451103927446   -0.070458817048   -0.886544821766
 H    5.451103927446   -0.070458817048    0.886544821766
