23

 C   -4.813423334464    0.175376609224    0.000000000000
 C   -3.778613334464   -0.908693390776    0.000000000000
 O   -4.315943334464   -2.128203390776    0.000000000000
 C   -3.364203334464   -3.225153390776    0.000000000000
 O   -2.556883334464   -0.722243390776    0.000000000000
 H   -4.321233334464    1.152686609224    0.000000000000
 H   -5.453543334464    0.069766609224    0.886550000000
 H   -5.453543334464    0.069766609224   -0.886550000000
 H   -3.975693334464   -4.130953390776    0.000000000000
 H   -2.741103334464   -3.173513390776    0.901780000000
 H   -2.741103334464   -3.173513390776   -0.901780000000
 K   -0.216313334464   -0.061103390776    0.000000000000
 O    2.670719904080    0.754395891591    0.000000000000
 C    3.892454882033    0.940844324267    0.000000000000
 O    4.429787561864    2.160364563412    0.000000000000
 C    3.478046362132    3.257317564745    0.000000000000
 H    4.089534661391    4.163114867826    0.000000000000
 H    2.854945954233    3.205673302362   -0.901782612795
 H    2.854945954233    3.205673302362    0.901782612795
 C    4.927258222772   -0.143219241625    0.000000000000
 H    4.435077343138   -1.120532417747    0.000000000000
 H    5.567385980724   -0.037612665596   -0.886544821766
 H    5.567385980724   -0.037612665596    0.886544821766
