23

 C   -4.851516749110    0.164616375538    0.000000000000
 C   -3.816706749110   -0.919453624462    0.000000000000
 O   -4.354036749110   -2.138963624462    0.000000000000
 C   -3.402296749110   -3.235913624462    0.000000000000
 O   -2.594976749110   -0.733003624462    0.000000000000
 H   -4.359326749110    1.141926375538    0.000000000000
 H   -5.491636749110    0.059006375538    0.886550000000
 H   -5.491636749110    0.059006375538   -0.886550000000
 H   -4.013786749110   -4.141713624462    0.000000000000
 H   -2.779196749110   -3.184273624462    0.901780000000
 H   -2.779196749110   -3.184273624462   -0.901780000000
 K   -0.254406749110   -0.071863624462    0.000000000000
 O    2.728860930719    0.770818967317    0.000000000000
 C    3.950595908672    0.957267399993    0.000000000000
 O    4.487928588503    2.176787639138    0.000000000000
 C    3.536187388771    3.273740640471    0.000000000000
 H    4.147675688030    4.179537943552    0.000000000000
 H    2.913086980872    3.222096378088   -0.901782612795
 H    2.913086980872    3.222096378088    0.901782612795
 C    4.985399249412   -0.126796165898    0.000000000000
 H    4.493218369777   -1.104109342021    0.000000000000
 H    5.625527007363   -0.021189589870   -0.886544821766
 H    5.625527007363   -0.021189589870    0.886544821766
