23

 C   -4.965796993047    0.132335674479    0.000000000000
 C   -3.930986993047   -0.951734325521    0.000000000000
 O   -4.468316993047   -2.171244325521    0.000000000000
 C   -3.516576993047   -3.268194325521    0.000000000000
 O   -2.709256993047   -0.765284325521    0.000000000000
 H   -4.473606993047    1.109645674479    0.000000000000
 H   -5.605916993047    0.026725674479    0.886550000000
 H   -5.605916993047    0.026725674479   -0.886550000000
 H   -4.128066993047   -4.173994325521    0.000000000000
 H   -2.893476993047   -3.216554325521    0.901780000000
 H   -2.893476993047   -3.216554325521   -0.901780000000
 K   -0.368686993047   -0.104144325521    0.000000000000
 O    2.903284010637    0.820088194496    0.000000000000
 C    4.125018988589    1.006536627171    0.000000000000
 O    4.662351668421    2.226056866317    0.000000000000
 C    3.710610468688    3.323009867649    0.000000000000
 H    4.322098767948    4.228807170730    0.000000000000
 H    3.087510060790    3.271365605266   -0.901782612795
 H    3.087510060790    3.271365605266    0.901782612795
 C    5.159822329329   -0.077526938720    0.000000000000
 H    4.667641449694   -1.054840114842    0.000000000000
 H    5.799950087281    0.028079637308   -0.886544821766
 H    5.799950087281    0.028079637308    0.886544821766
