23

 C   -5.080077236983    0.100054973421    0.000000000000
 C   -4.045267236983   -0.984015026579    0.000000000000
 O   -4.582597236983   -2.203525026579    0.000000000000
 C   -3.630857236983   -3.300475026579    0.000000000000
 O   -2.823537236983   -0.797565026579    0.000000000000
 H   -4.587887236983    1.077364973421    0.000000000000
 H   -5.720197236983   -0.005555026579    0.886550000000
 H   -5.720197236983   -0.005555026579   -0.886550000000
 H   -4.242347236983   -4.206275026579    0.000000000000
 H   -3.007757236983   -3.248835026579    0.901780000000
 H   -3.007757236983   -3.248835026579   -0.901780000000
 K   -0.482967236983   -0.136425026579    0.000000000000
 O    3.077707090554    0.869357421674    0.000000000000
 C    4.299442068507    1.055805854350    0.000000000000
 O    4.836774748338    2.275326093495    0.000000000000
 C    3.885033548606    3.372279094827    0.000000000000
 H    4.496521847865    4.278076397908    0.000000000000
 H    3.261933140708    3.320634832444   -0.901782612795
 H    3.261933140708    3.320634832444    0.901782612795
 C    5.334245409247   -0.028257711542    0.000000000000
 H    4.842064529612   -1.005570887664    0.000000000000
 H    5.974373167198    0.077348864487   -0.886544821766
 H    5.974373167198    0.077348864487    0.886544821766
