23

 C   -5.384824554148    0.013973103931    0.000000000000
 C   -4.350014554148   -1.070096896069    0.000000000000
 O   -4.887344554148   -2.289606896069    0.000000000000
 C   -3.935604554148   -3.386556896069    0.000000000000
 O   -3.128284554148   -0.883646896069    0.000000000000
 H   -4.892634554148    0.991283103931    0.000000000000
 H   -6.024944554148   -0.091636896069    0.886550000000
 H   -6.024944554148   -0.091636896069   -0.886550000000
 H   -4.547094554148   -4.292356896069    0.000000000000
 H   -3.312504554148   -3.334916896069    0.901780000000
 H   -3.312504554148   -3.334916896069   -0.901780000000
 K   -0.787714554148   -0.222506896069    0.000000000000
 O    3.542835303668    1.000742027483    0.000000000000
 C    4.764570281620    1.187190460158    0.000000000000
 O    5.301902961452    2.406710699304    0.000000000000
 C    4.350161761719    3.503663700636    0.000000000000
 H    4.961650060979    4.409461003717    0.000000000000
 H    3.727061353821    3.452019438253   -0.901782612795
 H    3.727061353821    3.452019438253    0.901782612795
 C    5.799373622360    0.103126894267    0.000000000000
 H    5.307192742725   -0.874186281855    0.000000000000
 H    6.439501380312    0.208733470295   -0.886544821766
 H    6.439501380312    0.208733470295    0.886544821766
