23

 C   -5.499104798085   -0.018307597127    0.000000000000
 C   -4.464294798085   -1.102377597127    0.000000000000
 O   -5.001624798085   -2.321887597127    0.000000000000
 C   -4.049884798085   -3.418837597127    0.000000000000
 O   -3.242564798085   -0.915927597127    0.000000000000
 H   -5.006914798085    0.959002402873    0.000000000000
 H   -6.139224798085   -0.123917597127    0.886550000000
 H   -6.139224798085   -0.123917597127   -0.886550000000
 H   -4.661374798085   -4.324637597127    0.000000000000
 H   -3.426784798085   -3.367197597127    0.901780000000
 H   -3.426784798085   -3.367197597127   -0.901780000000
 K   -0.901994798085   -0.254787597127    0.000000000000
 O    3.717258383585    1.050011254661    0.000000000000
 C    4.938993361538    1.236459687337    0.000000000000
 O    5.476326041369    2.455979926482    0.000000000000
 C    4.524584841637    3.552932927814    0.000000000000
 H    5.136073140896    4.458730230895    0.000000000000
 H    3.901484433739    3.501288665432   -0.901782612795
 H    3.901484433739    3.501288665432    0.901782612795
 C    5.973796702278    0.152396121445    0.000000000000
 H    5.481615822643   -0.824917054677    0.000000000000
 H    6.613924460229    0.258002697474   -0.886544821766
 H    6.613924460229    0.258002697474    0.886544821766
