23

 C   -5.537198212731   -0.029067830813    0.000000000000
 C   -4.502388212731   -1.113137830813    0.000000000000
 O   -5.039718212731   -2.332647830813    0.000000000000
 C   -4.087978212731   -3.429597830813    0.000000000000
 O   -3.280658212731   -0.926687830813    0.000000000000
 H   -5.045008212731    0.948242169187    0.000000000000
 H   -6.177318212731   -0.134677830813    0.886550000000
 H   -6.177318212731   -0.134677830813   -0.886550000000
 H   -4.699468212731   -4.335397830813    0.000000000000
 H   -3.464878212731   -3.377957830813    0.901780000000
 H   -3.464878212731   -3.377957830813   -0.901780000000
 K   -0.940088212731   -0.265547830813    0.000000000000
 O    3.775399410224    1.066434330387    0.000000000000
 C    4.997134388177    1.252882763063    0.000000000000
 O    5.534467068008    2.472403002208    0.000000000000
 C    4.582725868276    3.569356003540    0.000000000000
 H    5.194214167535    4.475153306622    0.000000000000
 H    3.959625460378    3.517711741158   -0.901782612795
 H    3.959625460378    3.517711741158    0.901782612795
 C    6.031937728917    0.168819197171    0.000000000000
 H    5.539756849282   -0.808493978951    0.000000000000
 H    6.672065486869    0.274425773200   -0.886544821766
 H    6.672065486869    0.274425773200    0.886544821766
