23

 C   -5.575291627376   -0.039828064499    0.000000000000
 C   -4.540481627376   -1.123898064499    0.000000000000
 O   -5.077811627376   -2.343408064499    0.000000000000
 C   -4.126071627376   -3.440358064499    0.000000000000
 O   -3.318751627376   -0.937448064499    0.000000000000
 H   -5.083101627376    0.937481935501    0.000000000000
 H   -6.215411627376   -0.145438064499    0.886550000000
 H   -6.215411627376   -0.145438064499   -0.886550000000
 H   -4.737561627376   -4.346158064499    0.000000000000
 H   -3.502971627376   -3.388718064499    0.901780000000
 H   -3.502971627376   -3.388718064499   -0.901780000000
 K   -0.978181627376   -0.276308064499    0.000000000000
 O    3.833540436864    1.082857406113    0.000000000000
 C    5.055275414816    1.269305838789    0.000000000000
 O    5.592608094648    2.488826077934    0.000000000000
 C    4.640866894915    3.585779079267    0.000000000000
 H    5.252355194174    4.491576382348    0.000000000000
 H    4.017766487017    3.534134816884   -0.901782612795
 H    4.017766487017    3.534134816884    0.901782612795
 C    6.090078755556    0.185242272897    0.000000000000
 H    5.597897875921   -0.792070903225    0.000000000000
 H    6.730206513508    0.290848848926   -0.886544821766
 H    6.730206513508    0.290848848926    0.886544821766
