23

 C   -5.803852115250   -0.104389466616    0.000000000000
 C   -4.769042115250   -1.188459466616    0.000000000000
 O   -5.306372115250   -2.407969466616    0.000000000000
 C   -4.354632115250   -3.504919466616    0.000000000000
 O   -3.547312115250   -1.002009466616    0.000000000000
 H   -5.311662115250    0.872920533384    0.000000000000
 H   -6.443972115250   -0.209999466616    0.886550000000
 H   -6.443972115250   -0.209999466616   -0.886550000000
 H   -4.966122115250   -4.410719466616    0.000000000000
 H   -3.731532115250   -3.453279466616    0.901780000000
 H   -3.731532115250   -3.453279466616   -0.901780000000
 K   -1.206742115250   -0.340869466616    0.000000000000
 O    4.182386596699    1.181395860470    0.000000000000
 C    5.404121574651    1.367844293146    0.000000000000
 O    5.941454254483    2.587364532291    0.000000000000
 C    4.989713054750    3.684317533623    0.000000000000
 H    5.601201354010    4.590114836704    0.000000000000
 H    4.366612646852    3.632673271240   -0.901782612795
 H    4.366612646852    3.632673271240    0.901782612795
 C    6.438924915391    0.283780727254    0.000000000000
 H    5.946744035756   -0.693532448868    0.000000000000
 H    7.079052673343    0.389387303282   -0.886544821766
 H    7.079052673343    0.389387303282    0.886544821766
