23

 C   -5.956225773833   -0.147430401361    0.000000000000
 C   -4.921415773833   -1.231500401361    0.000000000000
 O   -5.458745773833   -2.451010401361    0.000000000000
 C   -4.507005773833   -3.547960401361    0.000000000000
 O   -3.699685773833   -1.045050401361    0.000000000000
 H   -5.464035773833    0.829879598639    0.000000000000
 H   -6.596345773833   -0.253040401361    0.886550000000
 H   -6.596345773833   -0.253040401361   -0.886550000000
 H   -5.118495773833   -4.453760401361    0.000000000000
 H   -3.883905773833   -3.496320401361    0.901780000000
 H   -3.883905773833   -3.496320401361   -0.901780000000
 K   -1.359115773833   -0.383910401361    0.000000000000
 O    4.414950703255    1.247088163374    0.000000000000
 C    5.636685681208    1.433536596050    0.000000000000
 O    6.174018361039    2.653056835195    0.000000000000
 C    5.222277161307    3.750009836528    0.000000000000
 H    5.833765460566    4.655807139609    0.000000000000
 H    4.599176753409    3.698365574145   -0.901782612795
 H    4.599176753409    3.698365574145    0.901782612795
 C    6.671489021948    0.349473030158    0.000000000000
 H    6.179308142313   -0.627840145964    0.000000000000
 H    7.311616779900    0.455079606187   -0.886544821766
 H    7.311616779900    0.455079606187    0.886544821766
