23

 C   -6.032412603124   -0.168950868733    0.000000000000
 C   -4.997602603124   -1.253020868733    0.000000000000
 O   -5.534932603124   -2.472530868733    0.000000000000
 C   -4.583192603124   -3.569480868733    0.000000000000
 O   -3.775872603124   -1.066570868733    0.000000000000
 H   -5.540222603124    0.808359131267    0.000000000000
 H   -6.672532603124   -0.274560868733    0.886550000000
 H   -6.672532603124   -0.274560868733   -0.886550000000
 H   -5.194682603124   -4.475280868733    0.000000000000
 H   -3.960092603124   -3.517840868733    0.901780000000
 H   -3.960092603124   -3.517840868733   -0.901780000000
 K   -1.435302603124   -0.405430868733    0.000000000000
 O    4.531232756534    1.279934314826    0.000000000000
 C    5.752967734486    1.466382747502    0.000000000000
 O    6.290300414318    2.685902986647    0.000000000000
 C    5.338559214585    3.782855987980    0.000000000000
 H    5.950047513845    4.688653291061    0.000000000000
 H    4.715458806687    3.731211725597   -0.901782612795
 H    4.715458806687    3.731211725597    0.901782612795
 C    6.787771075226    0.382319181611    0.000000000000
 H    6.295590195592   -0.594993994512    0.000000000000
 H    7.427898833178    0.487925757639   -0.886544821766
 H    7.427898833178    0.487925757639    0.886544821766
