23

 C   -6.146692847061   -0.201231569792    0.000000000000
 C   -5.111882847061   -1.285301569792    0.000000000000
 O   -5.649212847061   -2.504811569792    0.000000000000
 C   -4.697472847061   -3.601761569792    0.000000000000
 O   -3.890152847061   -1.098851569792    0.000000000000
 H   -5.654502847061    0.776078430208    0.000000000000
 H   -6.786812847061   -0.306841569792    0.886550000000
 H   -6.786812847061   -0.306841569792   -0.886550000000
 H   -5.308962847061   -4.507561569792    0.000000000000
 H   -4.074372847061   -3.550121569792    0.901780000000
 H   -4.074372847061   -3.550121569792   -0.901780000000
 K   -1.549582847061   -0.437711569792    0.000000000000
 O    4.705655836451    1.329203542005    0.000000000000
 C    5.927390814404    1.515651974680    0.000000000000
 O    6.464723494235    2.735172213826    0.000000000000
 C    5.512982294503    3.832125215158    0.000000000000
 H    6.124470593762    4.737922518239    0.000000000000
 H    4.889881886605    3.780480952775   -0.901782612795
 H    4.889881886605    3.780480952775    0.901782612795
 C    6.962194155144    0.431588408789    0.000000000000
 H    6.470013275509   -0.545724767333    0.000000000000
 H    7.602321913095    0.537194984817   -0.886544821766
 H    7.602321913095    0.537194984817    0.886544821766
