23

 C   -6.260973090998   -0.233512270850    0.000000000000
 C   -5.226163090998   -1.317582270850    0.000000000000
 O   -5.763493090998   -2.537092270850    0.000000000000
 C   -4.811753090998   -3.634042270850    0.000000000000
 O   -4.004433090998   -1.131132270850    0.000000000000
 H   -5.768783090998    0.743797729150    0.000000000000
 H   -6.901093090998   -0.339122270850    0.886550000000
 H   -6.901093090998   -0.339122270850   -0.886550000000
 H   -5.423243090998   -4.539842270850    0.000000000000
 H   -4.188653090998   -3.582402270850    0.901780000000
 H   -4.188653090998   -3.582402270850   -0.901780000000
 K   -1.663863090998   -0.469992270850    0.000000000000
 O    4.880078916369    1.378472769183    0.000000000000
 C    6.101813894322    1.564921201859    0.000000000000
 O    6.639146574153    2.784441441004    0.000000000000
 C    5.687405374421    3.881394442336    0.000000000000
 H    6.298893673680    4.787191745417    0.000000000000
 H    5.064304966522    3.829750179953   -0.901782612795
 H    5.064304966522    3.829750179953    0.901782612795
 C    7.136617235062    0.480857635967    0.000000000000
 H    6.644436355427   -0.496455540155    0.000000000000
 H    7.776744993013    0.586464211996   -0.886544821766
 H    7.776744993013    0.586464211996    0.886544821766
