23

 C   -6.299066505643   -0.244272504536    0.000000000000
 C   -5.264256505643   -1.328342504536    0.000000000000
 O   -5.801586505643   -2.547852504536    0.000000000000
 C   -4.849846505643   -3.644802504536    0.000000000000
 O   -4.042526505643   -1.141892504536    0.000000000000
 H   -5.806876505643    0.733037495464    0.000000000000
 H   -6.939186505643   -0.349882504536    0.886550000000
 H   -6.939186505643   -0.349882504536   -0.886550000000
 H   -5.461336505643   -4.550602504536    0.000000000000
 H   -4.226746505643   -3.593162504536    0.901780000000
 H   -4.226746505643   -3.593162504536   -0.901780000000
 K   -1.701956505643   -0.480752504536    0.000000000000
 O    4.938219943008    1.394895844909    0.000000000000
 C    6.159954920961    1.581344277585    0.000000000000
 O    6.697287600792    2.800864516730    0.000000000000
 C    5.745546401060    3.897817518062    0.000000000000
 H    6.357034700319    4.803614821144    0.000000000000
 H    5.122445993161    3.846173255680   -0.901782612795
 H    5.122445993161    3.846173255680    0.901782612795
 C    7.194758261701    0.497280711693    0.000000000000
 H    6.702577382066   -0.480032464429    0.000000000000
 H    7.834886019652    0.602887287722   -0.886544821766
 H    7.834886019652    0.602887287722    0.886544821766
