23

 C   -6.337159920289   -0.255032738222    0.000000000000
 C   -5.302349920289   -1.339102738222    0.000000000000
 O   -5.839679920289   -2.558612738222    0.000000000000
 C   -4.887939920289   -3.655562738222    0.000000000000
 O   -4.080619920289   -1.152652738222    0.000000000000
 H   -5.844969920289    0.722277261778    0.000000000000
 H   -6.977279920289   -0.360642738222    0.886550000000
 H   -6.977279920289   -0.360642738222   -0.886550000000
 H   -5.499429920289   -4.561362738222    0.000000000000
 H   -4.264839920289   -3.603922738222    0.901780000000
 H   -4.264839920289   -3.603922738222   -0.901780000000
 K   -1.740049920289   -0.491512738222    0.000000000000
 O    4.996360969647    1.411318920635    0.000000000000
 C    6.218095947600    1.597767353311    0.000000000000
 O    6.755428627431    2.817287592456    0.000000000000
 C    5.803687427699    3.914240593789    0.000000000000
 H    6.415175726958    4.820037896870    0.000000000000
 H    5.180587019801    3.862596331406   -0.901782612795
 H    5.180587019801    3.862596331406    0.901782612795
 C    7.252899288340    0.513703787419    0.000000000000
 H    6.760718408705   -0.463609388703    0.000000000000
 H    7.893027046291    0.619310363448   -0.886544821766
 H    7.893027046291    0.619310363448    0.886544821766
