23

 C   -6.413346749580   -0.276553205595    0.000000000000
 C   -5.378536749580   -1.360623205595    0.000000000000
 O   -5.915866749580   -2.580133205595    0.000000000000
 C   -4.964126749580   -3.677083205595    0.000000000000
 O   -4.156806749580   -1.174173205595    0.000000000000
 H   -5.921156749580    0.700756794405    0.000000000000
 H   -7.053466749580   -0.382163205595    0.886550000000
 H   -7.053466749580   -0.382163205595   -0.886550000000
 H   -5.575616749580   -4.582883205595    0.000000000000
 H   -4.341026749580   -3.625443205595    0.901780000000
 H   -4.341026749580   -3.625443205595   -0.901780000000
 K   -1.816236749580   -0.513033205595    0.000000000000
 O    5.112643022926    1.444165072087    0.000000000000
 C    6.334378000878    1.630613504763    0.000000000000
 O    6.871710680710    2.850133743908    0.000000000000
 C    5.919969480977    3.947086745241    0.000000000000
 H    6.531457780237    4.852884048322    0.000000000000
 H    5.296869073079    3.895442482858   -0.901782612795
 H    5.296869073079    3.895442482858    0.901782612795
 C    7.369181341618    0.546549938872    0.000000000000
 H    6.877000461983   -0.430763237251    0.000000000000
 H    8.009309099570    0.652156514900   -0.886544821766
 H    8.009309099570    0.652156514900    0.886544821766
