23

 C   -6.451440164226   -0.287313439281    0.000000000000
 C   -5.416630164226   -1.371383439281    0.000000000000
 O   -5.953960164226   -2.590893439281    0.000000000000
 C   -5.002220164226   -3.687843439281    0.000000000000
 O   -4.194900164226   -1.184933439281    0.000000000000
 H   -5.959250164226    0.689996560719    0.000000000000
 H   -7.091560164226   -0.392923439281    0.886550000000
 H   -7.091560164226   -0.392923439281   -0.886550000000
 H   -5.613710164226   -4.593643439281    0.000000000000
 H   -4.379120164226   -3.636203439281    0.901780000000
 H   -4.379120164226   -3.636203439281   -0.901780000000
 K   -1.854330164226   -0.523793439281    0.000000000000
 O    5.170784049565    1.460588147813    0.000000000000
 C    6.392519027517    1.647036580489    0.000000000000
 O    6.929851707349    2.866556819635    0.000000000000
 C    5.978110507616    3.963509820967    0.000000000000
 H    6.589598806876    4.869307124048    0.000000000000
 H    5.355010099718    3.911865558584   -0.901782612795
 H    5.355010099718    3.911865558584    0.901782612795
 C    7.427322368257    0.562973014598    0.000000000000
 H    6.935141488623   -0.414340161524    0.000000000000
 H    8.067450126209    0.668579590626   -0.886544821766
 H    8.067450126209    0.668579590626    0.886544821766
