23

 C   -6.489533578871   -0.298073672967    0.000000000000
 C   -5.454723578871   -1.382143672967    0.000000000000
 O   -5.992053578871   -2.601653672967    0.000000000000
 C   -5.040313578871   -3.698603672967    0.000000000000
 O   -4.232993578871   -1.195693672967    0.000000000000
 H   -5.997343578871    0.679236327033    0.000000000000
 H   -7.129653578871   -0.403683672967    0.886550000000
 H   -7.129653578871   -0.403683672967   -0.886550000000
 H   -5.651803578871   -4.604403672967    0.000000000000
 H   -4.417213578871   -3.646963672967    0.901780000000
 H   -4.417213578871   -3.646963672967   -0.901780000000
 K   -1.892423578871   -0.534553672967    0.000000000000
 O    5.228925076204    1.477011223540    0.000000000000
 C    6.450660054157    1.663459656215    0.000000000000
 O    6.987992733988    2.882979895361    0.000000000000
 C    6.036251534256    3.979932896693    0.000000000000
 H    6.647739833515    4.885730199774    0.000000000000
 H    5.413151126357    3.928288634310   -0.901782612795
 H    5.413151126357    3.928288634310    0.901782612795
 C    7.485463394897    0.579396090324    0.000000000000
 H    6.993282515262   -0.397917085798    0.000000000000
 H    8.125591152848    0.685002666352   -0.886544821766
 H    8.125591152848    0.685002666352    0.886544821766
