23

 C   -6.527626993517   -0.308833906653    0.000000000000
 C   -5.492816993517   -1.392903906653    0.000000000000
 O   -6.030146993517   -2.612413906653    0.000000000000
 C   -5.078406993517   -3.709363906653    0.000000000000
 O   -4.271086993517   -1.206453906653    0.000000000000
 H   -6.035436993517    0.668476093347    0.000000000000
 H   -7.167746993517   -0.414443906653    0.886550000000
 H   -7.167746993517   -0.414443906653   -0.886550000000
 H   -5.689896993517   -4.615163906653    0.000000000000
 H   -4.455306993517   -3.657723906653    0.901780000000
 H   -4.455306993517   -3.657723906653   -0.901780000000
 K   -1.930516993517   -0.545313906653    0.000000000000
 O    5.287066102843    1.493434299266    0.000000000000
 C    6.508801080796    1.679882731941    0.000000000000
 O    7.046133760627    2.899402971087    0.000000000000
 C    6.094392560895    3.996355972419    0.000000000000
 H    6.705880860154    4.902153275500    0.000000000000
 H    5.471292152997    3.944711710036   -0.901782612795
 H    5.471292152997    3.944711710036    0.901782612795
 C    7.543604421536    0.595819166050    0.000000000000
 H    7.051423541901   -0.381494010072    0.000000000000
 H    8.183732179487    0.701425742078   -0.886544821766
 H    8.183732179487    0.701425742078    0.886544821766
