23

 C   -6.603813822808   -0.330354374026    0.000000000000
 C   -5.569003822808   -1.414424374026    0.000000000000
 O   -6.106333822808   -2.633934374026    0.000000000000
 C   -5.154593822808   -3.730884374026    0.000000000000
 O   -4.347273822808   -1.227974374026    0.000000000000
 H   -6.111623822808    0.646955625974    0.000000000000
 H   -7.243933822808   -0.435964374026    0.886550000000
 H   -7.243933822808   -0.435964374026   -0.886550000000
 H   -5.766083822808   -4.636684374026    0.000000000000
 H   -4.531493822808   -3.679244374026    0.901780000000
 H   -4.531493822808   -3.679244374026   -0.901780000000
 K   -2.006703822808   -0.566834374026    0.000000000000
 O    5.403348156122    1.526280450718    0.000000000000
 C    6.625083134074    1.712728883394    0.000000000000
 O    7.162415813906    2.932249122539    0.000000000000
 C    6.210674614173    4.029202123871    0.000000000000
 H    6.822162913432    4.934999426952    0.000000000000
 H    5.587574206275    3.977557861488   -0.901782612795
 H    5.587574206275    3.977557861488    0.901782612795
 C    7.659886474814    0.628665317502    0.000000000000
 H    7.167705595179   -0.348647858620    0.000000000000
 H    8.300014232766    0.734271893531   -0.886544821766
 H    8.300014232766    0.734271893531    0.886544821766
