23

 C   -6.641907237454   -0.341114607712    0.000000000000
 C   -5.607097237454   -1.425184607712    0.000000000000
 O   -6.144427237454   -2.644694607712    0.000000000000
 C   -5.192687237454   -3.741644607712    0.000000000000
 O   -4.385367237454   -1.238734607712    0.000000000000
 H   -6.149717237454    0.636195392288    0.000000000000
 H   -7.282027237454   -0.446724607712    0.886550000000
 H   -7.282027237454   -0.446724607712   -0.886550000000
 H   -5.804177237454   -4.647444607712    0.000000000000
 H   -4.569587237454   -3.690004607712    0.901780000000
 H   -4.569587237454   -3.690004607712   -0.901780000000
 K   -2.044797237454   -0.577594607712    0.000000000000
 O    5.461489182761    1.542703526444    0.000000000000
 C    6.683224160713    1.729151959120    0.000000000000
 O    7.220556840545    2.948672198265    0.000000000000
 C    6.268815640812    4.045625199597    0.000000000000
 H    6.880303940072    4.951422502678    0.000000000000
 H    5.645715232914    3.993980937214   -0.901782612795
 H    5.645715232914    3.993980937214    0.901782612795
 C    7.718027501453    0.645088393228    0.000000000000
 H    7.225846621819   -0.332224782894    0.000000000000
 H    8.358155259405    0.750694969257   -0.886544821766
 H    8.358155259405    0.750694969257    0.886544821766
