23

 C   -6.680000652099   -0.351874841398    0.000000000000
 C   -5.645190652099   -1.435944841398    0.000000000000
 O   -6.182520652099   -2.655454841398    0.000000000000
 C   -5.230780652099   -3.752404841398    0.000000000000
 O   -4.423460652099   -1.249494841398    0.000000000000
 H   -6.187810652099    0.625435158602    0.000000000000
 H   -7.320120652099   -0.457484841398    0.886550000000
 H   -7.320120652099   -0.457484841398   -0.886550000000
 H   -5.842270652099   -4.658204841398    0.000000000000
 H   -4.607680652099   -3.700764841398    0.901780000000
 H   -4.607680652099   -3.700764841398   -0.901780000000
 K   -2.082890652099   -0.588354841398    0.000000000000
 O    5.519630209400    1.559126602170    0.000000000000
 C    6.741365187353    1.745575034846    0.000000000000
 O    7.278697867184    2.965095273991    0.000000000000
 C    6.326956667452    4.062048275323    0.000000000000
 H    6.938444966711    4.967845578404    0.000000000000
 H    5.703856259553    4.010404012941   -0.901782612795
 H    5.703856259553    4.010404012941    0.901782612795
 C    7.776168528093    0.661511468954    0.000000000000
 H    7.283987648458   -0.315801707168    0.000000000000
 H    8.416296286044    0.767118044983   -0.886544821766
 H    8.416296286044    0.767118044983    0.886544821766
