23

 C   -6.718094066745   -0.362635075084    0.000000000000
 C   -5.683284066745   -1.446705075084    0.000000000000
 O   -6.220614066745   -2.666215075084    0.000000000000
 C   -5.268874066745   -3.763165075084    0.000000000000
 O   -4.461554066745   -1.260255075084    0.000000000000
 H   -6.225904066745    0.614674924916    0.000000000000
 H   -7.358214066745   -0.468245075084    0.886550000000
 H   -7.358214066745   -0.468245075084   -0.886550000000
 H   -5.880364066745   -4.668965075084    0.000000000000
 H   -4.645774066745   -3.711525075084    0.901780000000
 H   -4.645774066745   -3.711525075084   -0.901780000000
 K   -2.120984066745   -0.599115075084    0.000000000000
 O    5.577771236039    1.575549677896    0.000000000000
 C    6.799506213992    1.761998110572    0.000000000000
 O    7.336838893823    2.981518349717    0.000000000000
 C    6.385097694091    4.078471351049    0.000000000000
 H    6.996585993350    4.984268654131    0.000000000000
 H    5.761997286193    4.026827088667   -0.901782612795
 H    5.761997286193    4.026827088667    0.901782612795
 C    7.834309554732    0.677934544680    0.000000000000
 H    7.342128675097   -0.299378631442    0.000000000000
 H    8.474437312683    0.783541120709   -0.886544821766
 H    8.474437312683    0.783541120709    0.886544821766
