23

 C   -6.794280896036   -0.384155542456    0.000000000000
 C   -5.759470896036   -1.468225542456    0.000000000000
 O   -6.296800896036   -2.687735542456    0.000000000000
 C   -5.345060896036   -3.784685542456    0.000000000000
 O   -4.537740896036   -1.281775542456    0.000000000000
 H   -6.302090896036    0.593154457544    0.000000000000
 H   -7.434400896036   -0.489765542456    0.886550000000
 H   -7.434400896036   -0.489765542456   -0.886550000000
 H   -5.956550896036   -4.690485542456    0.000000000000
 H   -4.721960896036   -3.733045542456    0.901780000000
 H   -4.721960896036   -3.733045542456   -0.901780000000
 K   -2.197170896036   -0.620635542456    0.000000000000
 O    5.694053289318    1.608395829348    0.000000000000
 C    6.915788267270    1.794844262024    0.000000000000
 O    7.453120947102    3.014364501169    0.000000000000
 C    6.501379747369    4.111317502502    0.000000000000
 H    7.112868046628    5.017114805583    0.000000000000
 H    5.878279339471    4.059673240119   -0.901782612795
 H    5.878279339471    4.059673240119    0.901782612795
 C    7.950591608010    0.710780696133    0.000000000000
 H    7.458410728375   -0.266532479990    0.000000000000
 H    8.590719365962    0.816387272161   -0.886544821766
 H    8.590719365962    0.816387272161    0.886544821766
