23

 C   -6.832374310682   -0.394915776142    0.000000000000
 C   -5.797564310682   -1.478985776142    0.000000000000
 O   -6.334894310682   -2.698495776142    0.000000000000
 C   -5.383154310682   -3.795445776142    0.000000000000
 O   -4.575834310682   -1.292535776142    0.000000000000
 H   -6.340184310682    0.582394223858    0.000000000000
 H   -7.472494310682   -0.500525776142    0.886550000000
 H   -7.472494310682   -0.500525776142   -0.886550000000
 H   -5.994644310682   -4.701245776142    0.000000000000
 H   -4.760054310682   -3.743805776142    0.901780000000
 H   -4.760054310682   -3.743805776142   -0.901780000000
 K   -2.235264310682   -0.631395776142    0.000000000000
 O    5.752194315957    1.624818905074    0.000000000000
 C    6.973929293909    1.811267337750    0.000000000000
 O    7.511261973741    3.030787576895    0.000000000000
 C    6.559520774008    4.127740578228    0.000000000000
 H    7.171009073268    5.033537881309    0.000000000000
 H    5.936420366110    4.076096315845   -0.901782612795
 H    5.936420366110    4.076096315845    0.901782612795
 C    8.008732634649    0.727203771859    0.000000000000
 H    7.516551755014   -0.250109404263    0.000000000000
 H    8.648860392601    0.832810347887   -0.886544821766
 H    8.648860392601    0.832810347887    0.886544821766
