23

 C   -6.870467725327   -0.405676009829    0.000000000000
 C   -5.835657725327   -1.489746009829    0.000000000000
 O   -6.372987725327   -2.709256009829    0.000000000000
 C   -5.421247725327   -3.806206009829    0.000000000000
 O   -4.613927725327   -1.303296009829    0.000000000000
 H   -6.378277725327    0.571633990171    0.000000000000
 H   -7.510587725327   -0.511286009829    0.886550000000
 H   -7.510587725327   -0.511286009829   -0.886550000000
 H   -6.032737725327   -4.712006009829    0.000000000000
 H   -4.798147725327   -3.754566009829    0.901780000000
 H   -4.798147725327   -3.754566009829   -0.901780000000
 K   -2.273357725327   -0.642156009829    0.000000000000
 O    5.810335342596    1.641241980800    0.000000000000
 C    7.032070320548    1.827690413476    0.000000000000
 O    7.569403000380    3.047210652622    0.000000000000
 C    6.617661800647    4.144163653954    0.000000000000
 H    7.229150099907    5.049960957035    0.000000000000
 H    5.994561392749    4.092519391571   -0.901782612795
 H    5.994561392749    4.092519391571    0.901782612795
 C    8.066873661288    0.743626847585    0.000000000000
 H    7.574692781654   -0.233686328537    0.000000000000
 H    8.707001419240    0.849233423613   -0.886544821766
 H    8.707001419240    0.849233423613    0.886544821766
