23

 C   -6.908561139973   -0.416436243515    0.000000000000
 C   -5.873751139973   -1.500506243515    0.000000000000
 O   -6.411081139973   -2.720016243515    0.000000000000
 C   -5.459341139973   -3.816966243515    0.000000000000
 O   -4.652021139973   -1.314056243515    0.000000000000
 H   -6.416371139973    0.560873756485    0.000000000000
 H   -7.548681139973   -0.522046243515    0.886550000000
 H   -7.548681139973   -0.522046243515   -0.886550000000
 H   -6.070831139973   -4.722766243515    0.000000000000
 H   -4.836241139973   -3.765326243515    0.901780000000
 H   -4.836241139973   -3.765326243515   -0.901780000000
 K   -2.311451139973   -0.652916243515    0.000000000000
 O    5.868476369235    1.657665056527    0.000000000000
 C    7.090211347188    1.844113489202    0.000000000000
 O    7.627544027019    3.063633728348    0.000000000000
 C    6.675802827287    4.160586729680    0.000000000000
 H    7.287291126546    5.066384032761    0.000000000000
 H    6.052702419388    4.108942467297   -0.901782612795
 H    6.052702419388    4.108942467297    0.901782612795
 C    8.125014687928    0.760049923311    0.000000000000
 H    7.632833808293   -0.217263252811    0.000000000000
 H    8.765142445879    0.865656499339   -0.886544821766
 H    8.765142445879    0.865656499339    0.886544821766
