23

 C   -6.946654554619   -0.427196477201    0.000000000000
 C   -5.911844554619   -1.511266477201    0.000000000000
 O   -6.449174554619   -2.730776477201    0.000000000000
 C   -5.497434554619   -3.827726477201    0.000000000000
 O   -4.690114554619   -1.324816477201    0.000000000000
 H   -6.454464554619    0.550113522799    0.000000000000
 H   -7.586774554619   -0.532806477201    0.886550000000
 H   -7.586774554619   -0.532806477201   -0.886550000000
 H   -6.108924554619   -4.733526477201    0.000000000000
 H   -4.874334554619   -3.776086477201    0.901780000000
 H   -4.874334554619   -3.776086477201   -0.901780000000
 K   -2.349544554619   -0.663676477201    0.000000000000
 O    5.926617395874    1.674088132253    0.000000000000
 C    7.148352373827    1.860536564928    0.000000000000
 O    7.685685053658    3.080056804074    0.000000000000
 C    6.733943853926    4.177009805406    0.000000000000
 H    7.345432153185    5.082807108487    0.000000000000
 H    6.110843446028    4.125365543023   -0.901782612795
 H    6.110843446028    4.125365543023    0.901782612795
 C    8.183155714567    0.776472999037    0.000000000000
 H    7.690974834932   -0.200840177085    0.000000000000
 H    8.823283472518    0.882079575065   -0.886544821766
 H    8.823283472518    0.882079575065    0.886544821766
