23

 C   -7.060934798555   -0.459477178259    0.000000000000
 C   -6.026124798555   -1.543547178259    0.000000000000
 O   -6.563454798555   -2.763057178259    0.000000000000
 C   -5.611714798555   -3.860007178259    0.000000000000
 O   -4.804394798555   -1.357097178259    0.000000000000
 H   -6.568744798555    0.517832821741    0.000000000000
 H   -7.701054798555   -0.565087178259    0.886550000000
 H   -7.701054798555   -0.565087178259   -0.886550000000
 H   -6.223204798555   -4.765807178259    0.000000000000
 H   -4.988614798555   -3.808367178259    0.901780000000
 H   -4.988614798555   -3.808367178259   -0.901780000000
 K   -2.463824798555   -0.695957178259    0.000000000000
 O    6.101040475792    1.723357359431    0.000000000000
 C    7.322775453744    1.909805792107    0.000000000000
 O    7.860108133576    3.129326031252    0.000000000000
 C    6.908366933843    4.226279032584    0.000000000000
 H    7.519855233103    5.132076335665    0.000000000000
 H    6.285266525945    4.174634770201   -0.901782612795
 H    6.285266525945    4.174634770201    0.901782612795
 C    8.357578794484    0.825742226215    0.000000000000
 H    7.865397914850   -0.151570949907    0.000000000000
 H    8.997706552436    0.931348802244   -0.886544821766
 H    8.997706552436    0.931348802244    0.886544821766
