23

 C   -7.137121627847   -0.480997645632    0.000000000000
 C   -6.102311627847   -1.565067645632    0.000000000000
 O   -6.639641627847   -2.784577645632    0.000000000000
 C   -5.687901627847   -3.881527645632    0.000000000000
 O   -4.880581627847   -1.378617645632    0.000000000000
 H   -6.644931627847    0.496312354368    0.000000000000
 H   -7.777241627847   -0.586607645632    0.886550000000
 H   -7.777241627847   -0.586607645632   -0.886550000000
 H   -6.299391627847   -4.787327645632    0.000000000000
 H   -5.064801627847   -3.829887645632    0.901780000000
 H   -5.064801627847   -3.829887645632   -0.901780000000
 K   -2.540011627847   -0.717477645632    0.000000000000
 O    6.217322529070    1.756203510883    0.000000000000
 C    7.439057507023    1.942651943559    0.000000000000
 O    7.976390186854    3.162172182704    0.000000000000
 C    7.024648987122    4.259125184037    0.000000000000
 H    7.636137286381    5.164922487118    0.000000000000
 H    6.401548579224    4.207480921654   -0.901782612795
 H    6.401548579224    4.207480921654    0.901782612795
 C    8.473860847763    0.858588377667    0.000000000000
 H    7.981679968128   -0.118724798455    0.000000000000
 H    9.113988605714    0.964194953696   -0.886544821766
 H    9.113988605714    0.964194953696    0.886544821766
