23

 C   -7.213308457138   -0.502518113004    0.000000000000
 C   -6.178498457138   -1.586588113004    0.000000000000
 O   -6.715828457138   -2.806098113004    0.000000000000
 C   -5.764088457138   -3.903048113004    0.000000000000
 O   -4.956768457138   -1.400138113004    0.000000000000
 H   -6.721118457138    0.474791886996    0.000000000000
 H   -7.853428457138   -0.608128113004    0.886550000000
 H   -7.853428457138   -0.608128113004   -0.886550000000
 H   -6.375578457138   -4.808848113004    0.000000000000
 H   -5.140988457138   -3.851408113004    0.901780000000
 H   -5.140988457138   -3.851408113004   -0.901780000000
 K   -2.616198457138   -0.738998113004    0.000000000000
 O    6.333604582349    1.789049662335    0.000000000000
 C    7.555339560301    1.975498095011    0.000000000000
 O    8.092672240133    3.195018334156    0.000000000000
 C    7.140931040400    4.291971335489    0.000000000000
 H    7.752419339659    5.197768638570    0.000000000000
 H    6.517830632502    4.240327073106   -0.901782612795
 H    6.517830632502    4.240327073106    0.901782612795
 C    8.590142901041    0.891434529120    0.000000000000
 H    8.097962021406   -0.085878647003    0.000000000000
 H    9.230270658993    0.997041105148   -0.886544821766
 H    9.230270658993    0.997041105148    0.886544821766
