23

 C   -7.289495286429   -0.524038580376    0.000000000000
 C   -6.254685286429   -1.608108580376    0.000000000000
 O   -6.792015286429   -2.827618580376    0.000000000000
 C   -5.840275286429   -3.924568580376    0.000000000000
 O   -5.032955286429   -1.421658580376    0.000000000000
 H   -6.797305286429    0.453271419624    0.000000000000
 H   -7.929615286429   -0.629648580376    0.886550000000
 H   -7.929615286429   -0.629648580376   -0.886550000000
 H   -6.451765286429   -4.830368580376    0.000000000000
 H   -5.217175286429   -3.872928580376    0.901780000000
 H   -5.217175286429   -3.872928580376   -0.901780000000
 K   -2.692385286429   -0.760518580376    0.000000000000
 O    6.449886635627    1.821895813788    0.000000000000
 C    7.671621613580    2.008344246463    0.000000000000
 O    8.208954293411    3.227864485609    0.000000000000
 C    7.257213093679    4.324817486941    0.000000000000
 H    7.868701392938    5.230614790022    0.000000000000
 H    6.634112685780    4.273173224558   -0.901782612795
 H    6.634112685780    4.273173224558    0.901782612795
 C    8.706424954319    0.924280680572    0.000000000000
 H    8.214244074685   -0.053032495550    0.000000000000
 H    9.346552712271    1.029887256600   -0.886544821766
 H    9.346552712271    1.029887256600    0.886544821766
