23

 C   -7.365682115720   -0.545559047749    0.000000000000
 C   -6.330872115720   -1.629629047749    0.000000000000
 O   -6.868202115720   -2.849139047749    0.000000000000
 C   -5.916462115720   -3.946089047749    0.000000000000
 O   -5.109142115720   -1.443179047749    0.000000000000
 H   -6.873492115720    0.431750952251    0.000000000000
 H   -8.005802115720   -0.651169047749    0.886550000000
 H   -8.005802115720   -0.651169047749   -0.886550000000
 H   -6.527952115720   -4.851889047749    0.000000000000
 H   -5.293362115720   -3.894449047749    0.901780000000
 H   -5.293362115720   -3.894449047749   -0.901780000000
 K   -2.768572115720   -0.782039047749    0.000000000000
 O    6.566168688905    1.854741965240    0.000000000000
 C    7.787903666858    2.041190397915    0.000000000000
 O    8.325236346689    3.260710637061    0.000000000000
 C    7.373495146957    4.357663638393    0.000000000000
 H    7.984983446216    5.263460941474    0.000000000000
 H    6.750394739059    4.306019376010   -0.901782612795
 H    6.750394739059    4.306019376010    0.901782612795
 C    8.822707007598    0.957126832024    0.000000000000
 H    8.330526127963   -0.020186344098    0.000000000000
 H    9.462834765549    1.062733408052   -0.886544821766
 H    9.462834765549    1.062733408052    0.886544821766
