23

 C   -7.403775530366   -0.556319281435    0.000000000000
 C   -6.368965530366   -1.640389281435    0.000000000000
 O   -6.906295530366   -2.859899281435    0.000000000000
 C   -5.954555530366   -3.956849281435    0.000000000000
 O   -5.147235530366   -1.453939281435    0.000000000000
 H   -6.911585530366    0.420990718565    0.000000000000
 H   -8.043895530366   -0.661929281435    0.886550000000
 H   -8.043895530366   -0.661929281435   -0.886550000000
 H   -6.566045530366   -4.862649281435    0.000000000000
 H   -5.331455530366   -3.905209281435    0.901780000000
 H   -5.331455530366   -3.905209281435   -0.901780000000
 K   -2.806665530366   -0.792799281435    0.000000000000
 O    6.624309715544    1.871165040966    0.000000000000
 C    7.846044693497    2.057613473642    0.000000000000
 O    8.383377373328    3.277133712787    0.000000000000
 C    7.431636173596    4.374086714119    0.000000000000
 H    8.043124472855    5.279884017200    0.000000000000
 H    6.808535765698    4.322442451736   -0.901782612795
 H    6.808535765698    4.322442451736    0.901782612795
 C    8.880848034237    0.973549907750    0.000000000000
 H    8.388667154602   -0.003763268372    0.000000000000
 H    9.520975792189    1.079156483779   -0.886544821766
 H    9.520975792189    1.079156483779    0.886544821766
