13

 C    1.323827556923    1.347201218214    0.000000000000
 H    1.358347556923    2.448053218214    0.000000000000
 H    1.848410556923    0.978056218214    0.893619000000
 H    1.848410556923    0.978056218214   -0.893619000000
 C   -0.118952443077    0.870150218214    0.000000000000
 H   -0.658126443077    1.241303218214   -0.894766000000
 H   -0.658126443077    1.241303218214    0.894766000000
 O   -0.118387443077   -0.558356781786    0.000000000000
 C   -1.447974443077   -1.068763781786    0.000000000000
 H   -2.001357443077   -0.737984781786   -0.899133000000
 H   -2.001357443077   -0.737984781786    0.899133000000
 H   -1.374891443077   -2.164238781786    0.000000000000
LI    0.921080270863   -1.157945700693    0.000000000000
