13

 C    1.314766716872    1.352427719449    0.000000000000
 H    1.349286716872    2.453279719449    0.000000000000
 H    1.839349716872    0.983282719449    0.893619000000
 H    1.839349716872    0.983282719449   -0.893619000000
 C   -0.128013283128    0.875376719449    0.000000000000
 H   -0.667187283128    1.246529719449   -0.894766000000
 H   -0.667187283128    1.246529719449    0.894766000000
 O   -0.127448283128   -0.553130280551    0.000000000000
 C   -1.457035283128   -1.063537280551    0.000000000000
 H   -2.010418283128   -0.732758280551   -0.899133000000
 H   -2.010418283128   -0.732758280551    0.899133000000
 H   -1.383952283128   -2.159012280551    0.000000000000
LI    0.998641740307   -1.202684942701    0.000000000000
