13

 C    1.305705876821    1.357654220684    0.000000000000
 H    1.340225876821    2.458506220684    0.000000000000
 H    1.830288876821    0.988509220684    0.893619000000
 H    1.830288876821    0.988509220684   -0.893619000000
 C   -0.137074123179    0.880603220684    0.000000000000
 H   -0.676248123179    1.251756220684   -0.894766000000
 H   -0.676248123179    1.251756220684    0.894766000000
 O   -0.136509123179   -0.547903779316    0.000000000000
 C   -1.466096123179   -1.058310779316    0.000000000000
 H   -2.019479123179   -0.727531779316   -0.899133000000
 H   -2.019479123179   -0.727531779316    0.899133000000
 H   -1.393013123179   -2.153785779316    0.000000000000
LI    1.076203209751   -1.247424184708    0.000000000000
