13

 C    1.269462516617    1.378560225624    0.000000000000
 H    1.303982516617    2.479412225624    0.000000000000
 H    1.794045516617    1.009415225624    0.893619000000
 H    1.794045516617    1.009415225624   -0.893619000000
 C   -0.173317483383    0.901509225624    0.000000000000
 H   -0.712491483383    1.272662225624   -0.894766000000
 H   -0.712491483383    1.272662225624    0.894766000000
 O   -0.172752483383   -0.526997774376    0.000000000000
 C   -1.502339483383   -1.037404774376    0.000000000000
 H   -2.055722483383   -0.706625774376   -0.899133000000
 H   -2.055722483383   -0.706625774376    0.899133000000
 H   -1.429256483383   -2.132879774376    0.000000000000
LI    1.386449087527   -1.426381152737    0.000000000000
