13

 C    0.526473632432    1.807133326889    0.000000000000
 H    0.560993632432    2.907985326889    0.000000000000
 H    1.051056632432    1.437988326889    0.893619000000
 H    1.051056632432    1.437988326889   -0.893619000000
 C   -0.916306367568    1.330082326889    0.000000000000
 H   -1.455480367568    1.701235326889   -0.894766000000
 H   -1.455480367568    1.701235326889    0.894766000000
 O   -0.915741367568   -0.098424673111    0.000000000000
 C   -2.245328367568   -0.608831673111    0.000000000000
 H   -2.798711367568   -0.278052673111   -0.899133000000
 H   -2.798711367568   -0.278052673111    0.899133000000
 H   -2.172245367568   -1.704306673111    0.000000000000
LI    7.746489581931   -5.094998997340    0.000000000000
