13

 C    1.251340836515    1.389013228094    0.000000000000
 H    1.285860836515    2.489865228094    0.000000000000
 H    1.775923836515    1.019868228094    0.893619000000
 H    1.775923836515    1.019868228094   -0.893619000000
 C   -0.191439163485    0.911962228094    0.000000000000
 H   -0.730613163485    1.283115228094   -0.894766000000
 H   -0.730613163485    1.283115228094    0.894766000000
 O   -0.190874163485   -0.516544771906    0.000000000000
 C   -1.520461163485   -1.026951771906    0.000000000000
 H   -2.073844163485   -0.696172771906   -0.899133000000
 H   -2.073844163485   -0.696172771906    0.899133000000
 H   -1.447378163485   -2.122426771906    0.000000000000
LI    1.541572026414   -1.515859636752    0.000000000000
