13

 C    1.242279996464    1.394239729329    0.000000000000
 H    1.276799996464    2.495091729329    0.000000000000
 H    1.766862996464    1.025094729329    0.893619000000
 H    1.766862996464    1.025094729329   -0.893619000000
 C   -0.200500003536    0.917188729329    0.000000000000
 H   -0.739674003536    1.288341729329   -0.894766000000
 H   -0.739674003536    1.288341729329    0.894766000000
 O   -0.199935003536   -0.511318270671    0.000000000000
 C   -1.529522003536   -1.021725270671    0.000000000000
 H   -2.082905003536   -0.690946270671   -0.899133000000
 H   -2.082905003536   -0.690946270671    0.899133000000
 H   -1.456439003536   -2.117200270671    0.000000000000
LI    1.619133495858   -1.560598878759    0.000000000000
