13

 C    1.233219156413    1.399466230564    0.000000000000
 H    1.267739156413    2.500318230564    0.000000000000
 H    1.757802156413    1.030321230564    0.893619000000
 H    1.757802156413    1.030321230564   -0.893619000000
 C   -0.209560843587    0.922415230564    0.000000000000
 H   -0.748734843587    1.293568230564   -0.894766000000
 H   -0.748734843587    1.293568230564    0.894766000000
 O   -0.208995843587   -0.506091769436    0.000000000000
 C   -1.538582843587   -1.016498769436    0.000000000000
 H   -2.091965843587   -0.685719769436   -0.899133000000
 H   -2.091965843587   -0.685719769436    0.899133000000
 H   -1.465499843587   -2.111973769436    0.000000000000
LI    1.696694965302   -1.605338120767    0.000000000000
