13

 C    1.224158316362    1.404692731799    0.000000000000
 H    1.258678316362    2.505544731799    0.000000000000
 H    1.748741316362    1.035547731799    0.893619000000
 H    1.748741316362    1.035547731799   -0.893619000000
 C   -0.218621683638    0.927641731799    0.000000000000
 H   -0.757795683638    1.298794731799   -0.894766000000
 H   -0.757795683638    1.298794731799    0.894766000000
 O   -0.218056683638   -0.500865268201    0.000000000000
 C   -1.547643683638   -1.011272268201    0.000000000000
 H   -2.101026683638   -0.680493268201   -0.899133000000
 H   -2.101026683638   -0.680493268201    0.899133000000
 H   -1.474560683638   -2.106747268201    0.000000000000
LI    1.774256434746   -1.650077362774    0.000000000000
