13

 C    1.206036636260    1.415145734269    0.000000000000
 H    1.240556636260    2.515997734269    0.000000000000
 H    1.730619636260    1.046000734269    0.893619000000
 H    1.730619636260    1.046000734269   -0.893619000000
 C   -0.236743363740    0.938094734269    0.000000000000
 H   -0.775917363740    1.309247734269   -0.894766000000
 H   -0.775917363740    1.309247734269    0.894766000000
 O   -0.236178363740   -0.490412265731    0.000000000000
 C   -1.565765363740   -1.000819265731    0.000000000000
 H   -2.119148363740   -0.670040265731   -0.899133000000
 H   -2.119148363740   -0.670040265731    0.899133000000
 H   -1.492682363740   -2.096294265731    0.000000000000
LI    1.929379373634   -1.739555846789    0.000000000000
