13

 C    1.187914956158    1.425598736739    0.000000000000
 H    1.222434956158    2.526450736739    0.000000000000
 H    1.712497956158    1.056453736739    0.893619000000
 H    1.712497956158    1.056453736739   -0.893619000000
 C   -0.254865043842    0.948547736739    0.000000000000
 H   -0.794039043842    1.319700736739   -0.894766000000
 H   -0.794039043842    1.319700736739    0.894766000000
 O   -0.254300043842   -0.479959263261    0.000000000000
 C   -1.583887043842   -0.990366263261    0.000000000000
 H   -2.137270043842   -0.659587263261   -0.899133000000
 H   -2.137270043842   -0.659587263261    0.899133000000
 H   -1.510804043842   -2.085841263261    0.000000000000
LI    2.084502312522   -1.829034330804    0.000000000000
