13

 C    1.151671595953    1.446504741678    0.000000000000
 H    1.186191595953    2.547356741678    0.000000000000
 H    1.676254595953    1.077359741678    0.893619000000
 H    1.676254595953    1.077359741678   -0.893619000000
 C   -0.291108404047    0.969453741678    0.000000000000
 H   -0.830282404047    1.340606741678   -0.894766000000
 H   -0.830282404047    1.340606741678    0.894766000000
 O   -0.290543404047   -0.459053258322    0.000000000000
 C   -1.620130404047   -0.969460258322    0.000000000000
 H   -2.173513404047   -0.638681258322   -0.899133000000
 H   -2.173513404047   -0.638681258322    0.899133000000
 H   -1.547047404047   -2.064935258322    0.000000000000
LI    2.394748190298   -2.007991298833    0.000000000000
