13

 C    1.142610755902    1.451731242913    0.000000000000
 H    1.177130755902    2.552583242913    0.000000000000
 H    1.667193755902    1.082586242913    0.893619000000
 H    1.667193755902    1.082586242913   -0.893619000000
 C   -0.300169244098    0.974680242913    0.000000000000
 H   -0.839343244098    1.345833242913   -0.894766000000
 H   -0.839343244098    1.345833242913    0.894766000000
 O   -0.299604244098   -0.453826757087    0.000000000000
 C   -1.629191244098   -0.964233757087    0.000000000000
 H   -2.182574244098   -0.633454757087   -0.899133000000
 H   -2.182574244098   -0.633454757087    0.899133000000
 H   -1.556108244098   -2.059708757087    0.000000000000
LI    2.472309659742   -2.052730540840    0.000000000000
