13

 C    1.115428235749    1.467410746618    0.000000000000
 H    1.149948235749    2.568262746618    0.000000000000
 H    1.640011235749    1.098265746618    0.893619000000
 H    1.640011235749    1.098265746618   -0.893619000000
 C   -0.327351764251    0.990359746618    0.000000000000
 H   -0.866525764251    1.361512746618   -0.894766000000
 H   -0.866525764251    1.361512746618    0.894766000000
 O   -0.326786764251   -0.438147253382    0.000000000000
 C   -1.656373764251   -0.948554253382    0.000000000000
 H   -2.209756764251   -0.617775253382   -0.899133000000
 H   -2.209756764251   -0.617775253382    0.899133000000
 H   -1.583290764251   -2.044029253382    0.000000000000
LI    2.704994068074   -2.186948266862    0.000000000000
