13

 C    1.106367395698    1.472637247853    0.000000000000
 H    1.140887395698    2.573489247853    0.000000000000
 H    1.630950395698    1.103492247853    0.893619000000
 H    1.630950395698    1.103492247853   -0.893619000000
 C   -0.336412604302    0.995586247853    0.000000000000
 H   -0.875586604302    1.366739247853   -0.894766000000
 H   -0.875586604302    1.366739247853    0.894766000000
 O   -0.335847604302   -0.432920752147    0.000000000000
 C   -1.665434604302   -0.943327752147    0.000000000000
 H   -2.218817604302   -0.612548752147   -0.899133000000
 H   -2.218817604302   -0.612548752147    0.899133000000
 H   -1.592351604302   -2.038802752147    0.000000000000
LI    2.782555537518   -2.231687508870    0.000000000000
