13

 C    1.097306555647    1.477863749088    0.000000000000
 H    1.131826555647    2.578715749088    0.000000000000
 H    1.621889555647    1.108718749088    0.893619000000
 H    1.621889555647    1.108718749088   -0.893619000000
 C   -0.345473444353    1.000812749088    0.000000000000
 H   -0.884647444353    1.371965749088   -0.894766000000
 H   -0.884647444353    1.371965749088    0.894766000000
 O   -0.344908444353   -0.427694250912    0.000000000000
 C   -1.674495444353   -0.938101250912    0.000000000000
 H   -2.227878444353   -0.607322250912   -0.899133000000
 H   -2.227878444353   -0.607322250912    0.899133000000
 H   -1.601412444353   -2.033576250912    0.000000000000
LI    2.860117006962   -2.276426750877    0.000000000000
