13

 C    1.088245715596    1.483090250323    0.000000000000
 H    1.122765715596    2.583942250323    0.000000000000
 H    1.612828715596    1.113945250323    0.893619000000
 H    1.612828715596    1.113945250323   -0.893619000000
 C   -0.354534284404    1.006039250323    0.000000000000
 H   -0.893708284404    1.377192250323   -0.894766000000
 H   -0.893708284404    1.377192250323    0.894766000000
 O   -0.353969284404   -0.422467749677    0.000000000000
 C   -1.683556284404   -0.932874749677    0.000000000000
 H   -2.236939284404   -0.602095749677   -0.899133000000
 H   -2.236939284404   -0.602095749677    0.899133000000
 H   -1.610473284404   -2.028349749677    0.000000000000
LI    2.937678476406   -2.321165992884    0.000000000000
