13

 C    1.079184875545    1.488316751558    0.000000000000
 H    1.113704875545    2.589168751558    0.000000000000
 H    1.603767875545    1.119171751558    0.893619000000
 H    1.603767875545    1.119171751558   -0.893619000000
 C   -0.363595124455    1.011265751558    0.000000000000
 H   -0.902769124455    1.382418751558   -0.894766000000
 H   -0.902769124455    1.382418751558    0.894766000000
 O   -0.363030124455   -0.417241248442    0.000000000000
 C   -1.692617124455   -0.927648248442    0.000000000000
 H   -2.246000124455   -0.596869248442   -0.899133000000
 H   -2.246000124455   -0.596869248442    0.899133000000
 H   -1.619534124455   -2.023123248442    0.000000000000
LI    3.015239945850   -2.365905234892    0.000000000000
