13

 C    1.070124035494    1.493543252793    0.000000000000
 H    1.104644035494    2.594395252793    0.000000000000
 H    1.594707035494    1.124398252793    0.893619000000
 H    1.594707035494    1.124398252793   -0.893619000000
 C   -0.372655964506    1.016492252793    0.000000000000
 H   -0.911829964506    1.387645252793   -0.894766000000
 H   -0.911829964506    1.387645252793    0.894766000000
 O   -0.372090964506   -0.412014747207    0.000000000000
 C   -1.701677964506   -0.922421747207    0.000000000000
 H   -2.255060964506   -0.591642747207   -0.899133000000
 H   -2.255060964506   -0.591642747207    0.899133000000
 H   -1.628594964506   -2.017896747207    0.000000000000
LI    3.092801415294   -2.410644476899    0.000000000000
