13

 C    1.042941515341    1.509222756498    0.000000000000
 H    1.077461515341    2.610074756498    0.000000000000
 H    1.567524515341    1.140077756498    0.893619000000
 H    1.567524515341    1.140077756498   -0.893619000000
 C   -0.399838484659    1.032171756498    0.000000000000
 H   -0.939012484659    1.403324756498   -0.894766000000
 H   -0.939012484659    1.403324756498    0.894766000000
 O   -0.399273484659   -0.396335243502    0.000000000000
 C   -1.728860484659   -0.906742243502    0.000000000000
 H   -2.282243484659   -0.575963243502   -0.899133000000
 H   -2.282243484659   -0.575963243502    0.899133000000
 H   -1.655777484659   -2.002217243502    0.000000000000
LI    3.325485823625   -2.544862202921    0.000000000000
