13

 C    1.024819835239    1.519675758968    0.000000000000
 H    1.059339835239    2.620527758968    0.000000000000
 H    1.549402835239    1.150530758968    0.893619000000
 H    1.549402835239    1.150530758968   -0.893619000000
 C   -0.417960164761    1.042624758968    0.000000000000
 H   -0.957134164761    1.413777758968   -0.894766000000
 H   -0.957134164761    1.413777758968    0.894766000000
 O   -0.417395164761   -0.385882241032    0.000000000000
 C   -1.746982164761   -0.896289241032    0.000000000000
 H   -2.300365164761   -0.565510241032   -0.899133000000
 H   -2.300365164761   -0.565510241032    0.899133000000
 H   -1.673899164761   -1.991764241032    0.000000000000
LI    3.480608762513   -2.634340686936    0.000000000000
