13

 C    0.961393954882    1.556261267612    0.000000000000
 H    0.995913954882    2.657113267612    0.000000000000
 H    1.485976954882    1.187116267612    0.893619000000
 H    1.485976954882    1.187116267612   -0.893619000000
 C   -0.481386045118    1.079210267612    0.000000000000
 H   -1.020560045118    1.450363267612   -0.894766000000
 H   -1.020560045118    1.450363267612    0.894766000000
 O   -0.480821045118   -0.349296732388    0.000000000000
 C   -1.810408045118   -0.859703732388    0.000000000000
 H   -2.363791045118   -0.528924732388   -0.899133000000
 H   -2.363791045118   -0.528924732388    0.899133000000
 H   -1.737325045118   -1.955178732388    0.000000000000
LI    4.023539048621   -2.947515380987    0.000000000000
