13

 C    0.943272274780    1.566714270082    0.000000000000
 H    0.977792274780    2.667566270082    0.000000000000
 H    1.467855274780    1.197569270082    0.893619000000
 H    1.467855274780    1.197569270082   -0.893619000000
 C   -0.499507725220    1.089663270082    0.000000000000
 H   -1.038681725220    1.460816270082   -0.894766000000
 H   -1.038681725220    1.460816270082    0.894766000000
 O   -0.498942725220   -0.338843729918    0.000000000000
 C   -1.828529725220   -0.849250729918    0.000000000000
 H   -2.381912725220   -0.518471729918   -0.899133000000
 H   -2.381912725220   -0.518471729918    0.899133000000
 H   -1.755446725220   -1.944725729918    0.000000000000
LI    4.178661987509   -3.036993865002    0.000000000000
