13

 C    0.934211434729    1.571940771317    0.000000000000
 H    0.968731434729    2.672792771317    0.000000000000
 H    1.458794434729    1.202795771317    0.893619000000
 H    1.458794434729    1.202795771317   -0.893619000000
 C   -0.508568565271    1.094889771317    0.000000000000
 H   -1.047742565271    1.466042771317   -0.894766000000
 H   -1.047742565271    1.466042771317    0.894766000000
 O   -0.508003565271   -0.333617228683    0.000000000000
 C   -1.837590565271   -0.844024228683    0.000000000000
 H   -2.390973565271   -0.513245228683   -0.899133000000
 H   -2.390973565271   -0.513245228683    0.899133000000
 H   -1.764507565271   -1.939499228683    0.000000000000
LI    4.256223456953   -3.081733107009    0.000000000000
