13

 C    0.916089754627    1.582393773787    0.000000000000
 H    0.950609754627    2.683245773787    0.000000000000
 H    1.440672754627    1.213248773787    0.893619000000
 H    1.440672754627    1.213248773787   -0.893619000000
 C   -0.526690245373    1.105342773787    0.000000000000
 H   -1.065864245373    1.476495773787   -0.894766000000
 H   -1.065864245373    1.476495773787    0.894766000000
 O   -0.526125245373   -0.323164226213    0.000000000000
 C   -1.855712245373   -0.833571226213    0.000000000000
 H   -2.409095245373   -0.502792226213   -0.899133000000
 H   -2.409095245373   -0.502792226213    0.899133000000
 H   -1.782629245373   -1.929046226213    0.000000000000
LI    4.411346395841   -3.171211591024    0.000000000000
