13

 C    0.888907234474    1.598073277492    0.000000000000
 H    0.923427234474    2.698925277492    0.000000000000
 H    1.413490234474    1.228928277492    0.893619000000
 H    1.413490234474    1.228928277492   -0.893619000000
 C   -0.553872765526    1.121022277492    0.000000000000
 H   -1.093046765526    1.492175277492   -0.894766000000
 H   -1.093046765526    1.492175277492    0.894766000000
 O   -0.553307765526   -0.307484722508    0.000000000000
 C   -1.882894765526   -0.817891722508    0.000000000000
 H   -2.436277765526   -0.487112722508   -0.899133000000
 H   -2.436277765526   -0.487112722508    0.899133000000
 H   -1.809811765526   -1.913366722508    0.000000000000
LI    4.644030804173   -3.305429317046    0.000000000000
