13

 C    0.861724714321    1.613752781197    0.000000000000
 H    0.896244714321    2.714604781197    0.000000000000
 H    1.386307714321    1.244607781197    0.893619000000
 H    1.386307714321    1.244607781197   -0.893619000000
 C   -0.581055285679    1.136701781197    0.000000000000
 H   -1.120229285679    1.507854781197   -0.894766000000
 H   -1.120229285679    1.507854781197    0.894766000000
 O   -0.580490285679   -0.291805218803    0.000000000000
 C   -1.910077285679   -0.802212218803    0.000000000000
 H   -2.463460285679   -0.471433218803   -0.899133000000
 H   -2.463460285679   -0.471433218803    0.899133000000
 H   -1.836994285679   -1.897687218803    0.000000000000
LI    4.876715212505   -3.439647043068    0.000000000000
