13

 C    0.825481354116    1.634658786136    0.000000000000
 H    0.860001354116    2.735510786136    0.000000000000
 H    1.350064354116    1.265513786136    0.893619000000
 H    1.350064354116    1.265513786136   -0.893619000000
 C   -0.617298645884    1.157607786136    0.000000000000
 H   -1.156472645884    1.528760786136   -0.894766000000
 H   -1.156472645884    1.528760786136    0.894766000000
 O   -0.616733645884   -0.270899213864    0.000000000000
 C   -1.946320645884   -0.781306213864    0.000000000000
 H   -2.499703645884   -0.450527213864   -0.899133000000
 H   -2.499703645884   -0.450527213864    0.899133000000
 H   -1.873237645884   -1.876781213864    0.000000000000
LI    5.186961090280   -3.618604011098    0.000000000000
