13

 C    0.771116313810    1.666017793546    0.000000000000
 H    0.805636313810    2.766869793546    0.000000000000
 H    1.295699313810    1.296872793546    0.893619000000
 H    1.295699313810    1.296872793546   -0.893619000000
 C   -0.671663686190    1.188966793546    0.000000000000
 H   -1.210837686190    1.560119793546   -0.894766000000
 H   -1.210837686190    1.560119793546    0.894766000000
 O   -0.671098686190   -0.239540206454    0.000000000000
 C   -2.000685686190   -0.749947206454    0.000000000000
 H   -2.554068686190   -0.419168206454   -0.899133000000
 H   -2.554068686190   -0.419168206454    0.899133000000
 H   -1.927602686190   -1.845422206454    0.000000000000
LI    5.652329906944   -3.887039463142    0.000000000000
