13

 C    0.752994633708    1.676470796016    0.000000000000
 H    0.787514633708    2.777322796016    0.000000000000
 H    1.277577633708    1.307325796016    0.893619000000
 H    1.277577633708    1.307325796016   -0.893619000000
 C   -0.689785366292    1.199419796016    0.000000000000
 H   -1.228959366292    1.570572796016   -0.894766000000
 H   -1.228959366292    1.570572796016    0.894766000000
 O   -0.689220366292   -0.229087203984    0.000000000000
 C   -2.018807366292   -0.739494203984    0.000000000000
 H   -2.572190366292   -0.408715203984   -0.899133000000
 H   -2.572190366292   -0.408715203984    0.899133000000
 H   -1.945724366292   -1.834969203984    0.000000000000
LI    5.807452845832   -3.976517947156    0.000000000000
