13

 C    0.743933793657    1.681697297251    0.000000000000
 H    0.778453793657    2.782549297251    0.000000000000
 H    1.268516793657    1.312552297251    0.893619000000
 H    1.268516793657    1.312552297251   -0.893619000000
 C   -0.698846206343    1.204646297251    0.000000000000
 H   -1.238020206343    1.575799297251   -0.894766000000
 H   -1.238020206343    1.575799297251    0.894766000000
 O   -0.698281206343   -0.223860702749    0.000000000000
 C   -2.027868206343   -0.734267702749    0.000000000000
 H   -2.581251206343   -0.403488702749   -0.899133000000
 H   -2.581251206343   -0.403488702749    0.899133000000
 H   -1.954785206343   -1.829742702749    0.000000000000
LI    5.885014315276   -4.021257189164    0.000000000000
