13

 C    0.734872953606    1.686923798486    0.000000000000
 H    0.769392953606    2.787775798486    0.000000000000
 H    1.259455953606    1.317778798486    0.893619000000
 H    1.259455953606    1.317778798486   -0.893619000000
 C   -0.707907046394    1.209872798486    0.000000000000
 H   -1.247081046394    1.581025798486   -0.894766000000
 H   -1.247081046394    1.581025798486    0.894766000000
 O   -0.707342046394   -0.218634201514    0.000000000000
 C   -2.036929046394   -0.729041201514    0.000000000000
 H   -2.590312046394   -0.398262201514   -0.899133000000
 H   -2.590312046394   -0.398262201514    0.899133000000
 H   -1.963846046394   -1.824516201514    0.000000000000
LI    5.962575784720   -4.065996431171    0.000000000000
