13

 C    0.698629593402    1.707829803426    0.000000000000
 H    0.733149593402    2.808681803426    0.000000000000
 H    1.223212593402    1.338684803426    0.893619000000
 H    1.223212593402    1.338684803426   -0.893619000000
 C   -0.744150406598    1.230778803426    0.000000000000
 H   -1.283324406598    1.601931803426   -0.894766000000
 H   -1.283324406598    1.601931803426    0.894766000000
 O   -0.743585406598   -0.197728196574    0.000000000000
 C   -2.073172406598   -0.708135196574    0.000000000000
 H   -2.626555406598   -0.377356196574   -0.899133000000
 H   -2.626555406598   -0.377356196574    0.899133000000
 H   -2.000089406598   -1.803610196574    0.000000000000
LI    6.272821662496   -4.244953399201    0.000000000000
