13

 C    0.680507913300    1.718282805895    0.000000000000
 H    0.715027913300    2.819134805895    0.000000000000
 H    1.205090913300    1.349137805895    0.893619000000
 H    1.205090913300    1.349137805895   -0.893619000000
 C   -0.762272086700    1.241231805895    0.000000000000
 H   -1.301446086700    1.612384805895   -0.894766000000
 H   -1.301446086700    1.612384805895    0.894766000000
 O   -0.761707086700   -0.187275194105    0.000000000000
 C   -2.091294086700   -0.697682194105    0.000000000000
 H   -2.644677086700   -0.366903194105   -0.899133000000
 H   -2.644677086700   -0.366903194105    0.899133000000
 H   -2.018211086700   -1.793157194105    0.000000000000
LI    6.427944601384   -4.334431883215    0.000000000000
