13

 C    0.671447073249    1.723509307130    0.000000000000
 H    0.705967073249    2.824361307130    0.000000000000
 H    1.196030073249    1.354364307130    0.893619000000
 H    1.196030073249    1.354364307130   -0.893619000000
 C   -0.771332926751    1.246458307130    0.000000000000
 H   -1.310506926751    1.617611307130   -0.894766000000
 H   -1.310506926751    1.617611307130    0.894766000000
 O   -0.770767926751   -0.182048692870    0.000000000000
 C   -2.100354926751   -0.692455692870    0.000000000000
 H   -2.653737926751   -0.361676692870   -0.899133000000
 H   -2.653737926751   -0.361676692870    0.899133000000
 H   -2.027271926751   -1.787930692870    0.000000000000
LI    6.505506070828   -4.379171125223    0.000000000000
