13

 C    0.617082032943    1.754868314540    0.000000000000
 H    0.651602032943    2.855720314540    0.000000000000
 H    1.141665032943    1.385723314540    0.893619000000
 H    1.141665032943    1.385723314540   -0.893619000000
 C   -0.825697967057    1.277817314540    0.000000000000
 H   -1.364871967057    1.648970314540   -0.894766000000
 H   -1.364871967057    1.648970314540    0.894766000000
 O   -0.825132967057   -0.150689685460    0.000000000000
 C   -2.154719967057   -0.661096685460    0.000000000000
 H   -2.708102967057   -0.330317685460   -0.899133000000
 H   -2.708102967057   -0.330317685460    0.899133000000
 H   -2.081636967057   -1.756571685460    0.000000000000
LI    6.970874887491   -4.647606577267    0.000000000000
