13

 C    0.589899512790    1.770547818245    0.000000000000
 H    0.624419512790    2.871399818245    0.000000000000
 H    1.114482512790    1.401402818245    0.893619000000
 H    1.114482512790    1.401402818245   -0.893619000000
 C   -0.852880487210    1.293496818245    0.000000000000
 H   -1.392054487210    1.664649818245   -0.894766000000
 H   -1.392054487210    1.664649818245    0.894766000000
 O   -0.852315487210   -0.135010181755    0.000000000000
 C   -2.181902487210   -0.645417181755    0.000000000000
 H   -2.735285487210   -0.314638181755   -0.899133000000
 H   -2.735285487210   -0.314638181755    0.899133000000
 H   -2.108819487210   -1.740892181755    0.000000000000
LI    7.203559295823   -4.781824303289    0.000000000000
