13

 C    0.562716992637    1.786227321950    0.000000000000
 H    0.597236992637    2.887079321950    0.000000000000
 H    1.087299992637    1.417082321950    0.893619000000
 H    1.087299992637    1.417082321950   -0.893619000000
 C   -0.880063007363    1.309176321950    0.000000000000
 H   -1.419237007363    1.680329321950   -0.894766000000
 H   -1.419237007363    1.680329321950    0.894766000000
 O   -0.879498007363   -0.119330678050    0.000000000000
 C   -2.209085007363   -0.629737678050    0.000000000000
 H   -2.762468007363   -0.298958678050   -0.899133000000
 H   -2.762468007363   -0.298958678050    0.899133000000
 H   -2.136002007363   -1.725212678050    0.000000000000
LI    7.436243704155   -4.916042029311    0.000000000000
