13

 C    0.553656152586    1.791453823185    0.000000000000
 H    0.588176152586    2.892305823185    0.000000000000
 H    1.078239152586    1.422308823185    0.893619000000
 H    1.078239152586    1.422308823185   -0.893619000000
 C   -0.889123847414    1.314402823185    0.000000000000
 H   -1.428297847414    1.685555823185   -0.894766000000
 H   -1.428297847414    1.685555823185    0.894766000000
 O   -0.888558847414   -0.114104176815    0.000000000000
 C   -2.218145847414   -0.624511176815    0.000000000000
 H   -2.771528847414   -0.293732176815   -0.899133000000
 H   -2.771528847414   -0.293732176815    0.899133000000
 H   -2.145062847414   -1.719986176815    0.000000000000
LI    7.513805173599   -4.960781271318    0.000000000000
