13

 C    0.544595312535    1.796680324420    0.000000000000
 H    0.579115312535    2.897532324420    0.000000000000
 H    1.069178312535    1.427535324420    0.893619000000
 H    1.069178312535    1.427535324420   -0.893619000000
 C   -0.898184687465    1.319629324420    0.000000000000
 H   -1.437358687465    1.690782324420   -0.894766000000
 H   -1.437358687465    1.690782324420    0.894766000000
 O   -0.897619687465   -0.108877675580    0.000000000000
 C   -2.227206687465   -0.619284675580    0.000000000000
 H   -2.780589687465   -0.288505675580   -0.899133000000
 H   -2.780589687465   -0.288505675580    0.899133000000
 H   -2.154123687465   -1.714759675580    0.000000000000
LI    7.591366643043   -5.005520513326    0.000000000000
