16

 N   -2.059438946348   -1.206998590364   -0.023204732061
 C   -0.827313214081   -1.837288870372   -0.022249771753
 N   -0.557172277955   -3.158174345340   -0.025713960700
 C    0.770956890508   -3.376368238090   -0.010146532037
 H    1.084765173478   -4.423046970580   -0.006766961346
 N    1.783306333549   -2.468387280949    0.003824738238
 C    1.471089589642   -1.157566197700   -0.000821665662
 N    2.478716544444   -0.233067560395   -0.042643502593
 H    3.410168081831   -0.563597669147    0.179814431540
 H    2.245979038417    0.726903194644    0.182166742847
 C    0.105588748768   -0.780872343833   -0.009592753377
 N   -0.517940562423    0.458093356797    0.000285455641
 C   -1.817866049580    0.150013968436   -0.008169397517
 H   -2.627919578367    0.876594769538   -0.004121259654
 H   -2.963228623518   -1.667255714198   -0.030807787994
CS   -0.100645184584    1.366796440607    0.011388297946
