16

 N   -2.080136379447   -1.252069353864   -0.023755421928
 C   -0.848010647180   -1.882359633872   -0.022800461620
 N   -0.577869711054   -3.203245108840   -0.026264650567
 C    0.750259457409   -3.421439001590   -0.010697221904
 H    1.064067740379   -4.468117734080   -0.007317651213
 N    1.762608900450   -2.513458044449    0.003274048371
 C    1.450392156543   -1.202636961200   -0.001372355529
 N    2.458019111345   -0.278138323895   -0.043194192460
 H    3.389470648732   -0.608668432647    0.179263741673
 H    2.225281605318    0.681832431144    0.181616052980
 C    0.084891315669   -0.825943107333   -0.010143443244
 N   -0.538637995522    0.413022593297   -0.000265234226
 C   -1.838563482679    0.104943204936   -0.008720087384
 H   -2.648617011466    0.831524006038   -0.004671949521
 H   -2.983926056617   -1.712326477698   -0.031358477861
CS   -0.079613079899    1.412595985488    0.011947892310
