16

 N   -2.121531245646   -1.342210880864   -0.024856801660
 C   -0.889405513379   -1.972501160872   -0.023901841352
 N   -0.619264577253   -3.293386635840   -0.027366030299
 C    0.708864591210   -3.511580528590   -0.011798601636
 H    1.022672874180   -4.558259261080   -0.008419030945
 N    1.721214034251   -2.603599571449    0.002172668639
 C    1.408997290344   -1.292778488200   -0.002473735261
 N    2.416624245146   -0.368279850895   -0.044295572192
 H    3.348075782533   -0.698809959647    0.178162361941
 H    2.183886739119    0.591690904144    0.180514673248
 C    0.043496449470   -0.916084634333   -0.011244822976
 N   -0.580032861721    0.322881066297   -0.001366613958
 C   -1.879958348878    0.014801677936   -0.009821467116
 H   -2.690011877665    0.741382479038   -0.005773329253
 H   -3.025320922816   -1.802468004698   -0.032459857593
CS   -0.037548870530    1.504195075250    0.013067081039
