16

 N   -2.142228678745   -1.387281644364   -0.025407491527
 C   -0.910102946478   -2.017571924372   -0.024452531219
 N   -0.639962010352   -3.338457399340   -0.027916720166
 C    0.688167158111   -3.556651292090   -0.012349291503
 H    1.001975441081   -4.603330024580   -0.008969720812
 N    1.700516601152   -2.648670334949    0.001621978772
 C    1.388299857245   -1.337849251700   -0.003024425128
 N    2.395926812047   -0.413350614395   -0.044846262059
 H    3.327378349434   -0.743880723147    0.177611672074
 H    2.163189306020    0.546620140644    0.179963983381
 C    0.022799016371   -0.961155397833   -0.011795512843
 N   -0.600730294820    0.277810302797   -0.001917303825
 C   -1.900655781977   -0.030269085564   -0.010372156983
 H   -2.710709310764    0.696311715538   -0.006324019120
 H   -3.046018355915   -1.847538768198   -0.033010547460
CS   -0.016516765845    1.549994620131    0.013626675403
