16

 N   -2.183623544944   -1.477423171365   -0.026508871259
 C   -0.951497812677   -2.107713451373   -0.025553910951
 N   -0.681356876551   -3.428598926341   -0.029018099898
 C    0.646772291912   -3.646792819091   -0.013450671235
 H    0.960580574882   -4.693471551581   -0.010071100544
 N    1.659121734953   -2.738811861950    0.000520599040
 C    1.346904991046   -1.427990778701   -0.004125804860
 N    2.354531945848   -0.503492141396   -0.045947641791
 H    3.285983483235   -0.834022250148    0.176510292342
 H    2.121794439821    0.456478613643    0.178862603649
 C   -0.018595849828   -1.051296924834   -0.012896892575
 N   -0.642125161019    0.187668775796   -0.003018683557
 C   -1.942050648176   -0.120410612565   -0.011473536715
 H   -2.752104176963    0.606170188537   -0.007425398852
 H   -3.087413222114   -1.937680295199   -0.034111927192
CS    0.025547443524    1.641593709893    0.014745864131
