16

 N   -2.245715844241   -1.612635461865   -0.028160940858
 C   -1.013590111974   -2.242925741873   -0.027205980550
 N   -0.743449175848   -3.563811216841   -0.030670169497
 C    0.584679992615   -3.782005109591   -0.015102740834
 H    0.898488275585   -4.828683842081   -0.011723170143
 N    1.597029435656   -2.874024152450   -0.001131470559
 C    1.284812691749   -1.563203069201   -0.005777874459
 N    2.292439646551   -0.638704431896   -0.047599711390
 H    3.223891183938   -0.969234540648    0.174858222743
 H    2.059702140524    0.321266323143    0.177210534050
 C   -0.080688149125   -1.186509215334   -0.014548962174
 N   -0.704217460316    0.052456485296   -0.004670753156
 C   -2.004142947473   -0.255622903065   -0.013125606314
 H   -2.814196476260    0.470957898037   -0.009077468451
 H   -3.149505521411   -2.072892585699   -0.035763996791
CS    0.088643757578    1.778992344536    0.016424647224
