16

 N   -3.922207925280   -5.263367305366   -0.072766820027
 C   -2.690082193013   -5.893657585374   -0.071811859719
 N   -2.419941256887   -7.214543060342   -0.075276048666
 C   -1.091812088424   -7.432736953092   -0.059708620003
 H   -0.778003805454   -8.479415685582   -0.056329049312
 N   -0.079462645383   -6.524755995951   -0.045737349728
 C   -0.391679389290   -5.213934912702   -0.050383753628
 N    0.615947565512   -4.289436275397   -0.092205590559
 H    1.547399102899   -4.619966384149    0.130252343574
 H    0.383210059485   -3.329465520358    0.132604654881
 C   -1.757180230164   -4.837241058835   -0.059154841343
 N   -2.380709541355   -3.598275358205   -0.049276632325
 C   -3.680635028512   -3.906354746566   -0.057731485483
 H   -4.490688557299   -3.179773945464   -0.053683347620
 H   -4.825997602450   -5.723624429200   -0.080369875960
CS    1.792244237037    5.488755479900    0.061751790727
