16

 N   -2.266413277341   -1.657706225365   -0.028711630724
 C   -1.034287545074   -2.287996505373   -0.027756670416
 N   -0.764146608948   -3.608881980341   -0.031220859363
 C    0.563982559515   -3.827075873091   -0.015653430700
 H    0.877790842485   -4.873754605581   -0.012273860009
 N    1.576332002556   -2.919094915950   -0.001682160425
 C    1.264115258649   -1.608273832701   -0.006328564325
 N    2.271742213451   -0.683775195396   -0.048150401256
 H    3.203193750838   -1.014305304148    0.174307532877
 H    2.039004707424    0.276195559643    0.176659844184
 C   -0.101385582225   -1.231579978834   -0.015099652040
 N   -0.724914893416    0.007385721796   -0.005221443022
 C   -2.024840380573   -0.300693666565   -0.013676296180
 H   -2.834893909360    0.425887134537   -0.009628158317
 H   -3.170202954511   -2.117963349199   -0.036314686657
CS    0.109675862263    1.824791889417    0.016984241588
