16

 N   -2.287110710440   -1.702776988865   -0.029262320591
 C   -1.054984978173   -2.333067268873   -0.028307360283
 N   -0.784844042047   -3.653952743841   -0.031771549230
 C    0.543285126416   -3.872146636591   -0.016204120567
 H    0.857093409386   -4.918825369081   -0.012824549876
 N    1.555634569457   -2.964165679450   -0.002232850292
 C    1.243417825550   -1.653344596201   -0.006879254192
 N    2.251044780352   -0.728845958896   -0.048701091123
 H    3.182496317739   -1.059376067648    0.173756843010
 H    2.018307274325    0.231124796143    0.176109154317
 C   -0.122083015324   -1.276650742334   -0.015650341907
 N   -0.745612326515   -0.037685041704   -0.005772132889
 C   -2.045537813672   -0.345764430065   -0.014226986047
 H   -2.855591342459    0.380816371037   -0.010178848184
 H   -3.190900387610   -2.163034112699   -0.036865376524
CS    0.130707966947    1.870591434298    0.017543835952
