16

 N   -2.307808143539   -1.747847752365   -0.029813010457
 C   -1.075682411272   -2.378138032373   -0.028858050149
 N   -0.805541475146   -3.699023507341   -0.032322239096
 C    0.522587693317   -3.917217400091   -0.016754810433
 H    0.836395976287   -4.963896132581   -0.013375239742
 N    1.534937136358   -3.009236442950   -0.002783540158
 C    1.222720392451   -1.698415359701   -0.007429944058
 N    2.230347347253   -0.773916722396   -0.049251780989
 H    3.161798884640   -1.104446831148    0.173206153144
 H    1.997609841226    0.186054032643    0.175558464451
 C   -0.142780448423   -1.321721505834   -0.016201031773
 N   -0.766309759614   -0.082755805204   -0.006322822755
 C   -2.066235246771   -0.390835193565   -0.014777675913
 H   -2.876288775558    0.335745607537   -0.010729538050
 H   -3.211597820709   -2.208104876199   -0.037416066390
CS    0.151740071632    1.916390979179    0.018103430317
