16

 N   -2.328505576638   -1.792918515865   -0.030363700323
 C   -1.096379844371   -2.423208795873   -0.029408740015
 N   -0.826238908245   -3.744094270841   -0.032872928962
 C    0.501890260218   -3.962288163591   -0.017305500299
 H    0.815698543188   -5.008966896081   -0.013925929608
 N    1.514239703259   -3.054307206450   -0.003334230024
 C    1.202022959352   -1.743486123201   -0.007980633924
 N    2.209649914154   -0.818987485896   -0.049802470855
 H    3.141101451541   -1.149517594648    0.172655463278
 H    1.976912408127    0.140983269143    0.175007774585
 C   -0.163477881522   -1.366792269334   -0.016751721639
 N   -0.787007192713   -0.127826568704   -0.006873512621
 C   -2.086932679870   -0.435905957065   -0.015328365779
 H   -2.896986208657    0.290674844037   -0.011280227916
 H   -3.232295253808   -2.253175639699   -0.037966756256
CS    0.172772176317    1.962190524061    0.018663024681
