16

 N   -2.431992742135   -2.018272333365   -0.033117149655
 C   -1.199867009868   -2.648562613373   -0.032162189347
 N   -0.929726073742   -3.969448088341   -0.035626378294
 C    0.398403094721   -4.187641981091   -0.020058949631
 H    0.712211377691   -5.234320713581   -0.016679378940
 N    1.410752537762   -3.279661023950   -0.006087679356
 C    1.098535793855   -1.968839940701   -0.010734083256
 N    2.106162748657   -1.044341303396   -0.052555920187
 H    3.037614286044   -1.374871412148    0.169902013946
 H    1.873425242630   -0.084370548357    0.172254325253
 C   -0.266965047019   -1.592146086834   -0.019505170971
 N   -0.890494358210   -0.353180386204   -0.009626961953
 C   -2.190419845367   -0.661259774565   -0.018081815111
 H   -3.000473374154    0.065321026537   -0.014033677248
 H   -3.335782419305   -2.478529457199   -0.040720205588
CS    0.277932699740    2.191188248466    0.021460996502
