16

 N   -2.514782474532   -2.198555387365   -0.035319909120
 C   -1.282656742265   -2.828845667373   -0.034364948812
 N   -1.012515806139   -4.149731142341   -0.037829137759
 C    0.315613362324   -4.367925035091   -0.022261709096
 H    0.629421645294   -5.414603767581   -0.018882138405
 N    1.327962805365   -3.459944077950   -0.008290438821
 C    1.015746061458   -2.149122994701   -0.012936842721
 N    2.023373016260   -1.224624357396   -0.054758679652
 H    2.954824553647   -1.555154466148    0.167699254481
 H    1.790635510233   -0.264653602357    0.170051565788
 C   -0.349754779416   -1.772429140834   -0.021707930436
 N   -0.973284090607   -0.533463440204   -0.011829721418
 C   -2.273209577764   -0.841542828565   -0.020284574576
 H   -3.083263106551   -0.114962027463   -0.016236436713
 H   -3.418572151702   -2.658812511199   -0.042922965053
CS    0.362061118479    2.374386427990    0.023699373959
