16

 N   -2.535479907631   -2.243626150865   -0.035870598986
 C   -1.303354175364   -2.873916430873   -0.034915638678
 N   -1.033213239238   -4.194801905841   -0.038379827625
 C    0.294915929225   -4.412995798591   -0.022812398962
 H    0.608724212195   -5.459674531081   -0.019432828271
 N    1.307265372266   -3.505014841450   -0.008841128687
 C    0.995048628359   -2.194193758201   -0.013487532587
 N    2.002675583161   -1.269695120896   -0.055309369518
 H    2.934127120548   -1.600225229648    0.167148564615
 H    1.769938077134   -0.309724365857    0.169500875922
 C   -0.370452212515   -1.817499904334   -0.022258620302
 N   -0.993981523706   -0.578534203704   -0.012380411284
 C   -2.293907010863   -0.886613592065   -0.020835264442
 H   -3.103960539650   -0.160032790963   -0.016787126579
 H   -3.439269584801   -2.703883274699   -0.043473654919
CS    0.383093223164    2.420185972871    0.024258968323
