16

 N   -2.618269640028   -2.423909204865   -0.038073358451
 C   -1.386143907761   -3.054199484873   -0.037118398143
 N   -1.116002971635   -4.375084959841   -0.040582587090
 C    0.212126196828   -4.593278852591   -0.025015158427
 H    0.525934479798   -5.639957585081   -0.021635587736
 N    1.224475639869   -3.685297895450   -0.011043888152
 C    0.912258895962   -2.374476812201   -0.015690292052
 N    1.919885850764   -1.449978174896   -0.057512128983
 H    2.851337388151   -1.780508283648    0.164945805150
 H    1.687148344737   -0.490007419857    0.167298116457
 C   -0.453241944912   -1.997782958334   -0.024461379767
 N   -1.076771256103   -0.758817257704   -0.014583170749
 C   -2.376696743260   -1.066896646065   -0.023038023907
 H   -3.186750272047   -0.340315844963   -0.018989886044
 H   -3.522059317198   -2.884166328699   -0.045676414384
CS    0.467221641902    2.603384152395    0.026497345780
