16

 N   -2.638967073127   -2.468979968365   -0.038624048317
 C   -1.406841340860   -3.099270248373   -0.037669088009
 N   -1.136700404734   -4.420155723341   -0.041133276956
 C    0.191428763729   -4.638349616091   -0.025565848293
 H    0.505237046699   -5.685028348581   -0.022186277602
 N    1.203778206770   -3.730368658950   -0.011594578018
 C    0.891561462863   -2.419547575701   -0.016240981918
 N    1.899188417665   -1.495048938396   -0.058062818849
 H    2.830639955052   -1.825579047148    0.164395115284
 H    1.666450911638   -0.535078183357    0.166747426591
 C   -0.473939378011   -2.042853721834   -0.025012069633
 N   -1.097468689202   -0.803888021204   -0.015133860615
 C   -2.397394176359   -1.111967409565   -0.023588713773
 H   -3.207447705146   -0.385386608463   -0.019540575910
 H   -3.542756750297   -2.929237092199   -0.046227104250
CS    0.488253746587    2.649183697276    0.027056940145
