16

 N   -2.742454238623   -2.694333785865   -0.041377497649
 C   -1.510328506356   -3.324624065873   -0.040422537341
 N   -1.240187570230   -4.645509540841   -0.043886726288
 C    0.087941598233   -4.863703433591   -0.028319297625
 H    0.401749881203   -5.910382166081   -0.024939726934
 N    1.100291041274   -3.955722476450   -0.014348027350
 C    0.788074297367   -2.644901393201   -0.018994431250
 N    1.795701252169   -1.720402755896   -0.060816268181
 H    2.727152789556   -2.050932864648    0.161641665952
 H    1.562963746142   -0.760432000857    0.163993977259
 C   -0.577426543507   -2.268207539334   -0.027765518965
 N   -1.200955854698   -1.029241838704   -0.017887309947
 C   -2.500881341855   -1.337321227065   -0.026342163105
 H   -3.310934870642   -0.610740425963   -0.022294025242
 H   -3.646243915793   -3.154590909699   -0.048980553582
CS    0.593414270010    2.878181421681    0.029854911966
