16

 N   -2.763151671723   -2.739404549365   -0.041928187515
 C   -1.531025939456   -3.369694829373   -0.040973227207
 N   -1.260885003330   -4.690580304341   -0.044437416154
 C    0.067244165133   -4.908774197091   -0.028869987491
 H    0.381052448103   -5.955452929581   -0.025490416800
 N    1.079593608174   -4.000793239950   -0.014898717216
 C    0.767376864267   -2.689972156701   -0.019545121116
 N    1.775003819069   -1.765473519396   -0.061366958047
 H    2.706455356456   -2.096003628148    0.161090976086
 H    1.542266313042   -0.805502764357    0.163443287393
 C   -0.598123976607   -2.313278302834   -0.028316208831
 N   -1.221653287798   -1.074312602204   -0.018437999813
 C   -2.521578774955   -1.382391990565   -0.026892852971
 H   -3.331632303742   -0.655811189463   -0.022844715108
 H   -3.666941348893   -3.199661673199   -0.049531243448
CS    0.614446374695    2.923980966562    0.030414506330
