16

 N   -2.783849104822   -2.784475312865   -0.042478877381
 C   -1.551723372555   -3.414765592873   -0.041523917073
 N   -1.281582436429   -4.735651067841   -0.044988106020
 C    0.046546732034   -4.953844960591   -0.029420677357
 H    0.360355015004   -6.000523693081   -0.026041106666
 N    1.058896175075   -4.045864003450   -0.015449407082
 C    0.746679431168   -2.735042920201   -0.020095810982
 N    1.754306385970   -1.810544282896   -0.061917647913
 H    2.685757923357   -2.141074391648    0.160540286220
 H    1.521568879943   -0.850573527857    0.162892597527
 C   -0.618821409706   -2.358349066334   -0.028866898697
 N   -1.242350720897   -1.119383365704   -0.018988689679
 C   -2.542276208054   -1.427462754065   -0.027443542837
 H   -3.352329736841   -0.700881952963   -0.023395404974
 H   -3.687638781992   -3.244732436699   -0.050081933314
CS    0.635478479380    2.969780511443    0.030974100694
