16

 N   -2.866638837219   -2.964758366865   -0.044681636847
 C   -1.634513104952   -3.595048646873   -0.043726676539
 N   -1.364372168826   -4.915934121841   -0.047190865486
 C   -0.036243000363   -5.134128014591   -0.031623436823
 H    0.277565282607   -6.180806747081   -0.028243866132
 N    0.976106442678   -4.226147057450   -0.017652166548
 C    0.663889698771   -2.915325974201   -0.022298570448
 N    1.671516653573   -1.990827336896   -0.064120407379
 H    2.602968190960   -2.321357445648    0.158337526754
 H    1.438779147546   -1.030856581857    0.160689838061
 C   -0.701611142103   -2.538632120334   -0.031069658163
 N   -1.325140453294   -1.299666419704   -0.021191449145
 C   -2.625065940451   -1.607745808065   -0.029646302303
 H   -3.435119469238   -0.881165006963   -0.025598164440
 H   -3.770428514389   -3.425015490699   -0.052284692780
CS    0.719606898119    3.152978690967    0.033212478151
