16

 N   -2.887336270318   -3.009829130365   -0.045232326713
 C   -1.655210538051   -3.640119410373   -0.044277366405
 N   -1.385069601925   -4.961004885341   -0.047741555352
 C   -0.056940433462   -5.179198778091   -0.032174126689
 H    0.256867849508   -6.225877510581   -0.028794555998
 N    0.955409009579   -4.271217820950   -0.018202856414
 C    0.643192265672   -2.960396737701   -0.022849260314
 N    1.650819220474   -2.035898100396   -0.064671097245
 H    2.582270757861   -2.366428209148    0.157786836888
 H    1.418081714447   -1.075927345357    0.160139148195
 C   -0.722308575202   -2.583702883834   -0.031620348029
 N   -1.345837886393   -1.344737183204   -0.021742139011
 C   -2.645763373550   -1.652816571565   -0.030196992169
 H   -3.455816902337   -0.926235770463   -0.026148854306
 H   -3.791125947488   -3.470086254199   -0.052835382646
CS    0.740639002803    3.198778235848    0.033772072515
