16

 N   -2.928731136517   -3.099970657365   -0.046333706445
 C   -1.696605404250   -3.730260937373   -0.045378746137
 N   -1.426464468124   -5.051146412341   -0.048842935084
 C   -0.098335299661   -5.269340305091   -0.033275506421
 H    0.215472983309   -6.316019037581   -0.029895935730
 N    0.914014143380   -4.361359347950   -0.019304236146
 C    0.601797399473   -3.050538264701   -0.023950640046
 N    1.609424354275   -2.126039627396   -0.065772476977
 H    2.540875891662   -2.456569736148    0.156685457156
 H    1.376686848248   -1.166068872357    0.159037768463
 C   -0.763703441401   -2.673844410834   -0.032721727761
 N   -1.387232752592   -1.434878710204   -0.022843518743
 C   -2.687158239749   -1.742958098565   -0.031298371901
 H   -3.497211768536   -1.016377297463   -0.027250234038
 H   -3.832520813687   -3.560227781199   -0.053936762378
CS    0.782703212173    3.290377325610    0.034891261244
