16

 N   -3.032218302013   -3.325324474865   -0.049087155777
 C   -1.800092569746   -3.955614754873   -0.048132195469
 N   -1.529951633620   -5.276500229841   -0.051596384416
 C   -0.201822465157   -5.494694122591   -0.036028955753
 H    0.111985817813   -6.541372855081   -0.032649385062
 N    0.810526977884   -4.586713165450   -0.022057685478
 C    0.498310233977   -3.275892082201   -0.026704089378
 N    1.505937188779   -2.351393444896   -0.068525926309
 H    2.437388726166   -2.681923553648    0.153932007824
 H    1.273199682752   -1.391422689857    0.156284319131
 C   -0.867190606897   -2.899198228334   -0.035475177093
 N   -1.490719918088   -1.660232527704   -0.025596968075
 C   -2.790645405245   -1.968311916065   -0.034051821233
 H   -3.600698934032   -1.241731114963   -0.030003683370
 H   -3.936007979183   -3.785581598699   -0.056690211710
CS    0.887863735596    3.519375050016    0.037689233065
