16

 N   -3.115008034410   -3.505607528866   -0.051289915242
 C   -1.882882302143   -4.135897808874   -0.050334954934
 N   -1.612741366017   -5.456783283842   -0.053799143881
 C   -0.284612197554   -5.674977176592   -0.038231715218
 H    0.029196085416   -6.721655909082   -0.034852144527
 N    0.727737245487   -4.766996219451   -0.024260444943
 C    0.415520501580   -3.456175136202   -0.028906848843
 N    1.423147456382   -2.531676498897   -0.070728685774
 H    2.354598993769   -2.862206607649    0.151729248359
 H    1.190409950355   -1.571705743858    0.154081559666
 C   -0.949980339294   -3.079481282335   -0.037677936558
 N   -1.573509650485   -1.840515581705   -0.027799727540
 C   -2.873435137642   -2.148594970066   -0.036254580698
 H   -3.683488666429   -1.422014168964   -0.032206442835
 H   -4.018797711580   -3.965864652700   -0.058892971175
CS    0.971992154335    3.702573229540    0.039927610522
