16

 N   -3.239192633005   -3.776032109866   -0.054594054440
 C   -2.007066900738   -4.406322389874   -0.053639094132
 N   -1.736925964612   -5.727207864842   -0.057103283079
 C   -0.408796796149   -5.945401757592   -0.041535854416
 H   -0.094988513179   -6.992080490082   -0.038156283725
 N    0.603552646892   -5.037420800451   -0.027564584141
 C    0.291335902985   -3.726599717202   -0.032210988041
 N    1.298962857787   -2.802101079897   -0.074032824972
 H    2.230414395174   -3.132631188649    0.148425109161
 H    1.066225351760   -1.842130324858    0.150777420468
 C   -1.074164937889   -3.349905863335   -0.040982075756
 N   -1.697694249080   -2.110940162705   -0.031103866738
 C   -2.997619736237   -2.419019551066   -0.039558719896
 H   -3.807673265024   -1.692438749964   -0.035510582033
 H   -4.142982310175   -4.236289233700   -0.062197110373
CS    1.098184782443    3.977370498826    0.043285176707
