16

 N   -3.259890066104   -3.821102873366   -0.055144744306
 C   -2.027764333837   -4.451393153374   -0.054189783998
 N   -1.757623397711   -5.772278628342   -0.057653972945
 C   -0.429494229248   -5.990472521092   -0.042086544282
 H   -0.115685946278   -7.037151253582   -0.038706973591
 N    0.582855213793   -5.082491563951   -0.028115274007
 C    0.270638469886   -3.771670480702   -0.032761677907
 N    1.278265424688   -2.847171843397   -0.074583514838
 H    2.209716962075   -3.177701952149    0.147874419295
 H    1.045527918661   -1.887201088358    0.150226730602
 C   -1.094862370988   -3.394976626835   -0.041532765622
 N   -1.718391682179   -2.156010926205   -0.031654556604
 C   -3.018317169336   -2.464090314566   -0.040109409762
 H   -3.828370698123   -1.737509513464   -0.036061271899
 H   -4.163679743274   -4.281359997200   -0.062747800239
CS    1.119216887127    4.023170043707    0.043844771072
