16

 N   -3.570351562593   -4.497164325866   -0.063405092300
 C   -2.338225830326   -5.127454605874   -0.062450131992
 N   -2.068084894200   -6.448340080842   -0.065914320939
 C   -0.739955725737   -6.666533973592   -0.050346892276
 H   -0.426147442767   -7.713212706082   -0.046967321585
 N    0.272393717304   -5.758553016451   -0.036375622001
 C   -0.039823026603   -4.447731933202   -0.041022025901
 N    0.967803928199   -3.523233295897   -0.082843862832
 H    1.899255465586   -3.853763404649    0.139614071301
 H    0.735066422172   -2.563262540858    0.141966382608
 C   -1.405323867477   -4.071038079335   -0.049793113616
 N   -2.028853178668   -2.832072378705   -0.039914904598
 C   -3.328778665825   -3.140151767066   -0.048369757756
 H   -4.138832194612   -2.413570965964   -0.044321619893
 H   -4.474141239763   -4.957421449700   -0.071008148233
CS    1.434698457398    4.710163216922    0.052238686535
