16

 N   -3.715233594288   -4.812659670366   -0.067259921364
 C   -2.483107862021   -5.442949950374   -0.066304961056
 N   -2.212966925895   -6.763835425342   -0.069769150003
 C   -0.884837757432   -6.982029318092   -0.054201721340
 H   -0.571029474462   -8.028708050582   -0.050822150649
 N    0.127511685609   -6.074048360951   -0.040230451065
 C   -0.184705058298   -4.763227277702   -0.044876854965
 N    0.822921896504   -3.838728640397   -0.086698691896
 H    1.754373433891   -4.169258749149    0.135759242237
 H    0.590184390477   -2.878757885358    0.138111553544
 C   -1.550205899172   -4.386533423835   -0.053647942680
 N   -2.173735210363   -3.147567723205   -0.043769733662
 C   -3.473660697520   -3.455647111566   -0.052224586820
 H   -4.283714226307   -2.729066310464   -0.048176448957
 H   -4.619023271458   -5.272916794200   -0.074862977297
CS    1.581923190190    5.030760031090    0.056155847085
