16

 N   -3.798023326685   -4.992942724366   -0.069462680829
 C   -2.565897594418   -5.623233004374   -0.068507720521
 N   -2.295756658292   -6.944118479342   -0.071971909468
 C   -0.967627489829   -7.162312372092   -0.056404480805
 H   -0.653819206859   -8.208991104582   -0.053024910114
 N    0.044721953212   -6.254331414951   -0.042433210530
 C   -0.267494790695   -4.943510331702   -0.047079614430
 N    0.740132164107   -4.019011694397   -0.088901451361
 H    1.671583701494   -4.349541803149    0.133556482772
 H    0.507394658080   -3.059040939358    0.135908794079
 C   -1.632995631569   -4.566816477835   -0.055850702145
 N   -2.256524942760   -3.327850777205   -0.045972493127
 C   -3.556450429917   -3.635930165566   -0.054427346285
 H   -4.366503958704   -2.909349364464   -0.050379208422
 H   -4.701813003855   -5.453199848200   -0.077065736762
CS    1.666051608929    5.213958210614    0.058394224542
