15

 C    2.151706451739    1.236866157599    2.570141902956
 H    2.306076451739    0.472586157599    3.345001902956
 H    1.750966451739    2.161176157599    3.008731902956
 H    3.131486451739    1.462706157599    2.118991902956
 C    1.222616451739    0.705966157599    1.471231902956
 O    0.453046451739    1.546116157599    0.899481902956
 O    1.304586451739   -0.535693842401    1.193601902956
NA   -0.346073548261   -0.209083842401   -0.448688097044
 C   -1.059172581026   -0.622605856023   -1.320748481260
 O   -1.135705566403    0.619812722391   -1.044863036625
 O   -0.437894233886   -1.486884713358   -0.619250569260
 C   -1.956201644495   -1.138954128604   -2.452895380869
 H   -2.046030376004   -2.233273673506   -2.413131439425
 H   -1.496161695321   -0.862624466749   -3.415465589604
 H   -2.946639322051   -0.664554533255   -2.404866135490
