15

 C    2.201443381653    1.265708316212    2.630966002019
 H    2.355813381653    0.501428316212    3.405826002019
 H    1.800703381653    2.190018316212    3.069556002019
 H    3.181223381653    1.491548316212    2.179816002019
 C    1.272353381653    0.734808316212    1.532056002019
 O    0.502783381653    1.574958316212    0.960306002019
 O    1.354323381653   -0.506851683788    1.254426002019
NA   -0.296336618347   -0.180241683788   -0.387863997981
 C   -1.128285489906   -0.662684033014   -1.405267779566
 O   -1.204818475283    0.579734545400   -1.129382334931
 O   -0.507007142767   -1.526962890349   -0.703769867567
 C   -2.025314553375   -1.179032305595   -2.537414679176
 H   -2.115143284884   -2.273351850498   -2.497650737731
 H   -1.565274604201   -0.902702643740   -3.499984887910
 H   -3.015752230931   -0.704632710246   -2.489385433796
