15

 C    2.276048776525    1.308971554131    2.722202150613
 H    2.430418776525    0.544691554131    3.497062150613
 H    1.875308776525    2.233281554131    3.160792150613
 H    3.255828776525    1.534811554131    2.271052150613
 C    1.346958776525    0.778071554131    1.623292150613
 O    0.577388776525    1.618221554131    1.051542150613
 O    1.428928776525   -0.463588445869    1.345662150613
NA   -0.221731223475   -0.136978445869   -0.296627849387
 C   -1.231954853226   -0.722801298501   -1.532046727026
 O   -1.308487838603    0.519617279913   -1.256161282390
 O   -0.610676506087   -1.587080155835   -0.830548815026
 C   -2.128983916695   -1.239149571081   -2.664193626635
 H   -2.218812648204   -2.333469115984   -2.624429685191
 H   -1.668943967521   -0.962819909227   -3.626763835370
 H   -3.119421594251   -0.764749975733   -2.616164381256
