15

 C    2.350654171396    1.352234792050    2.813438299208
 H    2.505024171396    0.587954792050    3.588298299208
 H    1.949914171396    2.276544792050    3.252028299208
 H    3.330434171396    1.578074792050    2.362288299208
 C    1.421564171396    0.821334792050    1.714528299208
 O    0.651994171396    1.661484792050    1.142778299208
 O    1.503534171396   -0.420325207950    1.436898299208
NA   -0.147125828604   -0.093715207950   -0.205391700792
 C   -1.335624216546   -0.782918563988   -1.658825674485
 O   -1.412157201923    0.459500014426   -1.382940229850
 O   -0.714345869407   -1.647197421322   -0.957327762486
 C   -2.232653280015   -1.299266836568   -2.790972574095
 H   -2.322482011524   -2.393586381471   -2.751208632650
 H   -1.772613330841   -1.022937174714   -3.753542782829
 H   -3.223090957571   -0.824867241220   -2.742943328715
