15

 C    2.375522636353    1.366655871356    2.843850348739
 H    2.529892636353    0.602375871356    3.618710348739
 H    1.974782636353    2.290965871356    3.282440348739
 H    3.355302636353    1.592495871356    2.392700348739
 C    1.446432636353    0.835755871356    1.744940348739
 O    0.676862636353    1.675905871356    1.173190348739
 O    1.528402636353   -0.405904128644    1.467310348739
NA   -0.122257363647   -0.079294128644   -0.174979651261
 C   -1.370180670986   -0.802957652483   -1.701085323639
 O   -1.446713656363    0.439460925931   -1.425199879003
 O   -0.748902323847   -1.667236509818   -0.999587411639
 C   -2.267209734455   -1.319305925064   -2.833232223248
 H   -2.357038465964   -2.413625469967   -2.793468281803
 H   -1.807169785281   -1.042976263209   -3.795802431982
 H   -3.257647412011   -0.844906329715   -2.785202977868
