15

 C    2.524733426095    1.453182347194    3.026322645928
 H    2.679103426095    0.688902347194    3.801182645928
 H    2.123993426095    2.377492347194    3.464912645928
 H    3.504513426095    1.679022347194    2.575172645928
 C    1.595643426095    0.922282347194    1.927412645928
 O    0.826073426095    1.762432347194    1.355662645928
 O    1.677613426095   -0.319377652806    1.649782645928
NA    0.026953426095    0.007232347194    0.007492645928
 C   -1.577519397627   -0.923192183457   -1.954643218557
 O   -1.654052383004    0.319226394957   -1.678757773922
 O   -0.956241050487   -1.787471040791   -1.253145306558
 C   -2.474548461096   -1.439540456037   -3.086790118167
 H   -2.564377192604   -2.533860000940   -3.047026176722
 H   -2.014508511921   -1.163210794183   -4.049360326901
 H   -3.464986138651   -0.965140860689   -3.038760872787
