15

 C    2.549601891052    1.467603426500    3.056734695460
 H    2.703971891052    0.703323426500    3.831594695460
 H    2.148861891052    2.391913426500    3.495324695460
 H    3.529381891052    1.693443426500    2.605584695460
 C    1.620511891052    0.936703426500    1.957824695460
 O    0.850941891052    1.776853426500    1.386074695460
 O    1.702481891052   -0.304956573500    1.680194695460
NA    0.051821891052    0.021653426500    0.037904695460
 C   -1.612075852067   -0.943231271952   -1.996902867711
 O   -1.688608837444    0.299187306462   -1.721017423075
 O   -0.990797504927   -1.807510129287   -1.295404955711
 C   -2.509104915536   -1.459579544533   -3.129049767320
 H   -2.598933647044   -2.553899089436   -3.089285825875
 H   -2.049064966361   -1.183249882678   -4.091619976054
 H   -3.499542593091   -0.985179949184   -3.081020521940
