15

 C    2.649075750881    1.525287743725    3.178382893586
 H    2.803445750881    0.761007743725    3.953242893586
 H    2.248335750881    2.449597743725    3.616972893586
 H    3.628855750881    1.751127743725    2.727232893586
 C    1.719985750881    0.994387743725    2.079472893586
 O    0.950415750881    1.834537743725    1.507722893586
 O    1.801955750881   -0.247272256275    1.801842893586
NA    0.151295750881    0.079337743725    0.159552893586
 C   -1.750301669827   -1.023387625934   -2.165941464323
 O   -1.826834655204    0.219030952479   -1.890056019688
 O   -1.129023322687   -1.887666483269   -1.464443552324
 C   -2.647330733296   -1.539735898515   -3.298088363933
 H   -2.737159464804   -2.634055443418   -3.258324422488
 H   -2.187290784121   -1.263406236661   -4.260658572667
 H   -3.637768410851   -1.065336303167   -3.250059118553
