15

 C    2.673944215838    1.539708823031    3.208794943117
 H    2.828314215838    0.775428823031    3.983654943117
 H    2.273204215838    2.464018823031    3.647384943117
 H    3.653724215838    1.765548823031    2.757644943117
 C    1.744854215838    1.008808823031    2.109884943117
 O    0.975284215838    1.848958823031    1.538134943117
 O    1.826824215838   -0.232851176969    1.832254943117
NA    0.176164215838    0.093758823031    0.189964943117
 C   -1.784858124267   -1.043426714430   -2.208201113476
 O   -1.861391109644    0.198991863984   -1.932315668841
 O   -1.163579777127   -1.907705571765   -1.506703201477
 C   -2.681887187736   -1.559774987011   -3.340348013086
 H   -2.771715919245   -2.654094531913   -3.300584071641
 H   -2.221847238561   -1.283445325156   -4.302918221820
 H   -3.672324865292   -1.085375391662   -3.292318767706
