15

 C    2.748549610709    1.582972060950    3.300031091712
 H    2.902919610709    0.818692060950    4.074891091712
 H    2.347809610709    2.507282060950    3.738621091712
 H    3.728329610709    1.808812060950    2.848881091712
 C    1.819459610709    1.052072060950    2.201121091712
 O    1.049889610709    1.892222060950    1.629371091712
 O    1.901429610709   -0.189587939050    1.923491091712
NA    0.250769610709    0.137022060950    0.281201091712
 C   -1.888527487587   -1.103543979917   -2.334980060936
 O   -1.965060472964    0.138874598497   -2.059094616300
 O   -1.267249140447   -1.967822837251   -1.633482148936
 C   -2.785556551056   -1.619892252497   -3.467126960545
 H   -2.875385282565   -2.714211797400   -3.427363019101
 H   -2.325516601881   -1.343562590643   -4.429697169280
 H   -3.775994228612   -1.145492657149   -3.419097715166
