15

 C    2.947497330366    1.698340695400    3.543327487964
 H    3.101867330366    0.934060695400    4.318187487964
 H    2.546757330366    2.622650695400    3.981917487964
 H    3.927277330366    1.924180695400    3.092177487964
 C    2.018407330366    1.167440695400    2.444417487964
 O    1.248837330366    2.007590695400    1.872667487964
 O    2.100377330366   -0.074219304600    2.166787487964
NA    0.449717330366    0.252390695400    0.524497487964
 C   -2.164979123107   -1.263856687881   -2.673057254161
 O   -2.241512108484   -0.021438109468   -2.397171809526
 O   -1.543700775968   -2.128135545216   -1.971559342162
 C   -3.062008186576   -1.780204960462   -3.805204153771
 H   -3.151836918085   -2.874524505365   -3.765440212326
 H   -2.601968237402   -1.503875298607   -4.767774362505
 H   -4.052445864132   -1.305805365114   -3.757174908391
