15

 C    3.046971190194    1.756025012626    3.664975686090
 H    3.201341190194    0.991745012626    4.439835686090
 H    2.646231190194    2.680335012626    4.103565686090
 H    4.026751190194    1.981865012626    3.213825686090
 C    2.117881190194    1.225125012626    2.566065686090
 O    1.348311190194    2.065275012626    1.994315686090
 O    2.199851190194   -0.016534987374    2.288435686090
NA    0.549191190194    0.310075012626    0.646145686090
 C   -2.303204940868   -1.344013041864   -2.842095850774
 O   -2.379737926244   -0.101594463450   -2.566210406138
 O   -1.681926593728   -2.208291899198   -2.140597938774
 C   -3.200234004337   -1.860361314444   -3.974242750383
 H   -3.290062735845   -2.954680859347   -3.934478808939
 H   -2.740194055162   -1.584031652590   -4.936812959117
 H   -4.190671681892   -1.385961719096   -3.926213505004
