15

 C    3.221050444893    1.856972567770    3.877860032810
 H    3.375420444893    1.092692567770    4.652720032810
 H    2.820310444893    2.781282567770    4.316450032810
 H    4.200830444893    2.082812567770    3.426710032810
 C    2.291960444893    1.326072567770    2.778950032810
 O    1.522390444893    2.166222567770    2.207200032810
 O    2.373930444893    0.084412567770    2.501320032810
NA    0.723270444893    0.411022567770    0.859030032810
 C   -2.545100121948   -1.484286661333   -3.137913394846
 O   -2.621633107325   -0.241868082919   -2.862027950211
 O   -1.923821774808   -2.348565518667   -2.436415482846
 C   -3.442129185417   -2.000634933913   -4.270060294455
 H   -3.531957916925   -3.094954478816   -4.230296353011
 H   -2.982089236242   -1.724305272059   -5.232630503190
 H   -4.432566862972   -1.526235338565   -4.222031049076
