15

 C    3.295655839765    1.900235805688    3.969096181405
 H    3.450025839765    1.135955805688    4.743956181405
 H    2.894915839765    2.824545805688    4.407686181405
 H    4.275435839765    2.126075805688    3.517946181405
 C    2.366565839765    1.369335805688    2.870186181405
 O    1.596995839765    2.209485805688    2.298436181405
 O    2.448535839765    0.127675805688    2.592556181405
NA    0.797875839765    0.454285805688    0.950266181405
 C   -2.648769485268   -1.544403926819   -3.264692342305
 O   -2.725302470645   -0.301985348406   -2.988806897670
 O   -2.027491138128   -2.408682784154   -2.563194430306
 C   -3.545798548737   -2.060752199400   -4.396839241915
 H   -3.635627280246   -3.155071744303   -4.357075300470
 H   -3.085758599562   -1.784422537546   -5.359409450649
 H   -4.536236226293   -1.586352604052   -4.348809996535
