15

 C    3.519472024378    2.030025519445    4.242804627188
 H    3.673842024378    1.265745519445    5.017664627188
 H    3.118732024378    2.954335519445    4.681394627188
 H    4.499252024378    2.255865519445    3.791654627188
 C    2.590382024378    1.499125519445    3.143894627188
 O    1.820812024378    2.339275519445    2.572144627188
 O    2.672352024378    0.257465519445    2.866264627188
NA    1.021692024378    0.584075519445    1.223974627188
 C   -2.959777575228   -1.724755723280   -3.645029184684
 O   -3.036310560605   -0.482337144866   -3.369143740048
 O   -2.338499228089   -2.589034580614   -2.943531272684
 C   -3.856806638697   -2.241103995860   -4.777176084293
 H   -3.946635370206   -3.335423540763   -4.737412142849
 H   -3.396766689523   -1.964774334006   -5.739746293028
 H   -4.847244316253   -1.766704400512   -4.729146838914
