15

 C    3.643814349164    2.102130915976    4.394864874846
 H    3.798184349164    1.337850915976    5.169724874846
 H    3.243074349164    3.026440915976    4.833454874846
 H    4.623594349164    2.327970915976    3.943714874846
 C    2.714724349164    1.571230915976    3.295954874846
 O    1.945154349164    2.411380915976    2.724204874846
 O    2.796694349164    0.329570915976    3.018324874846
NA    1.146034349164    0.656180915976    1.376034874846
 C   -3.132559847429   -1.824951165757   -3.856327430450
 O   -3.209092832805   -0.582532587344   -3.580441985814
 O   -2.511281500289   -2.689230023092   -3.154829518450
 C   -4.029588910898   -2.341299438338   -4.988474330059
 H   -4.119417642406   -3.435618983241   -4.948710388615
 H   -3.569548961723   -2.064969776484   -5.951044538793
 H   -5.020026588453   -1.866899842990   -4.940445084679
