15

 C    3.668682814121    2.116551995283    4.425276924377
 H    3.823052814121    1.352271995283    5.200136924377
 H    3.267942814121    3.040861995283    4.863866924377
 H    4.648462814121    2.342391995283    3.974126924377
 C    2.739592814121    1.585651995283    3.326366924377
 O    1.970022814121    2.425801995283    2.754616924377
 O    2.821562814121    0.343991995283    3.048736924377
NA    1.170902814121    0.670601995283    1.406446924377
 C   -3.167116301869   -1.844990254253   -3.898587079603
 O   -3.243649287245   -0.602571675839   -3.622701634967
 O   -2.545837954729   -2.709269111588   -3.197089167603
 C   -4.064145365338   -2.361338526834   -5.030733979212
 H   -4.153974096846   -3.455658071736   -4.990970037768
 H   -3.604105416163   -2.085008864979   -5.993304187946
 H   -5.054583042893   -1.886938931485   -4.982704733833
