15

 C    3.693551279078    2.130973074589    4.455688973909
 H    3.847921279078    1.366693074589    5.230548973909
 H    3.292811279078    3.055283074589    4.894278973909
 H    4.673331279078    2.356813074589    4.004538973909
 C    2.764461279078    1.600073074589    3.356778973909
 O    1.994891279078    2.440223074589    2.785028973909
 O    2.846431279078    0.358413074589    3.079148973909
NA    1.195771279078    0.685023074589    1.436858973909
 C   -3.201672756309   -1.865029342749   -3.940846728756
 O   -3.278205741685   -0.622610764335   -3.664961284121
 O   -2.580394409169   -2.729308200083   -3.239348816756
 C   -4.098701819778   -2.381377615329   -5.072993628365
 H   -4.188530551286   -3.475697160232   -5.033229686921
 H   -3.638661870603   -2.105047953475   -6.035563837100
 H   -5.089139497333   -1.906978019981   -5.024964382986
