15

 C    3.718419744035    2.145394153895    4.486101023440
 H    3.872789744035    1.381114153895    5.260961023440
 H    3.317679744035    3.069704153895    4.924691023440
 H    4.698199744035    2.371234153895    4.034951023440
 C    2.789329744035    1.614494153895    3.387191023440
 O    2.019759744035    2.454644153895    2.815441023440
 O    2.871299744035    0.372834153895    3.109561023440
NA    1.220639744035    0.699444153895    1.467271023440
 C   -3.236229210749   -1.885068431244   -3.983106377909
 O   -3.312762196125   -0.642649852830   -3.707220933274
 O   -2.614950863609   -2.749347288579   -3.281608465909
 C   -4.133258274218   -2.401416703825   -5.115253277518
 H   -4.223087005726   -3.495736248728   -5.075489336074
 H   -3.673218325043   -2.125087041970   -6.077823486253
 H   -5.123695951773   -1.927017108476   -5.067224032139
