15

 C    3.743288208992    2.159815233202    4.516513072972
 H    3.897658208992    1.395535233202    5.291373072972
 H    3.342548208992    3.084125233202    4.955103072972
 H    4.723068208992    2.385655233202    4.065363072972
 C    2.814198208992    1.628915233202    3.417603072972
 O    2.044628208992    2.469065233202    2.845853072972
 O    2.896168208992    0.387255233202    3.139973072972
NA    1.245508208992    0.713865233202    1.497683072972
 C   -3.270785665189   -1.905107519740   -4.025366027062
 O   -3.347318650565   -0.662688941326   -3.749480582427
 O   -2.649507318049   -2.769386377074   -3.323868115063
 C   -4.167814728658   -2.421455792320   -5.157512926672
 H   -4.257643460166   -3.515775337223   -5.117748985227
 H   -3.707774779483   -2.145126130466   -6.120083135406
 H   -5.158252406213   -1.947056196972   -5.109483681292
