15

 C    3.793025138906    2.188657391814    4.577337172035
 H    3.947395138906    1.424377391814    5.352197172035
 H    3.392285138906    3.112967391814    5.015927172035
 H    4.772805138906    2.414497391814    4.126187172035
 C    2.863935138906    1.657757391814    3.478427172035
 O    2.094365138906    2.497907391814    2.906677172035
 O    2.945905138906    0.416097391814    3.200797172035
NA    1.295245138906    0.742707391814    1.558507172035
 C   -3.339898574069   -1.945185696731   -4.109885325369
 O   -3.416431559446   -0.702767118317   -3.833999880733
 O   -2.718620226929   -2.809464554065   -3.408387413369
 C   -4.236927637538   -2.461533969311   -5.242032224978
 H   -4.326756369046   -3.555853514214   -5.202268283533
 H   -3.776887688363   -2.185204307457   -6.204602433712
 H   -5.227365315093   -1.987134373963   -5.194002979598
