15

 C    3.817893603863    2.203078471120    4.607749221566
 H    3.972263603863    1.438798471120    5.382609221566
 H    3.417153603863    3.127388471120    5.046339221566
 H    4.797673603863    2.428918471120    4.156599221566
 C    2.888803603863    1.672178471120    3.508839221566
 O    2.119233603863    2.512328471120    2.937089221566
 O    2.970773603863    0.430518471120    3.231209221566
NA    1.320113603863    0.757128471120    1.588919221566
 C   -3.374455028509   -1.965224785226   -4.152144974522
 O   -3.450988013886   -0.722806206813   -3.876259529886
 O   -2.753176681369   -2.829503642561   -3.450647062522
 C   -4.271484091978   -2.481573057807   -5.284291874131
 H   -4.361312823486   -3.575892602710   -5.244527932687
 H   -3.811444142803   -2.205243395953   -6.246862082865
 H   -5.261921769533   -2.007173462459   -5.236262628752
