15

 C    3.892498998734    2.246341709039    4.698985370161
 H    4.046868998734    1.482061709039    5.473845370161
 H    3.491758998734    3.170651709039    5.137575370161
 H    4.872278998734    2.472181709039    4.247835370161
 C    2.963408998734    1.715441709039    3.600075370161
 O    2.193838998734    2.555591709039    3.028325370161
 O    3.045378998734    0.473781709039    3.322445370161
NA    1.394718998734    0.800391709039    1.680155370161
 C   -3.478124391829   -2.025342050713   -4.278923921981
 O   -3.554657377206   -0.782923472299   -4.003038477346
 O   -2.856846044689   -2.889620908048   -3.577426009982
 C   -4.375153455298   -2.541690323294   -5.411070821591
 H   -4.464982186806   -3.636009868197   -5.371306880146
 H   -3.915113506123   -2.265360661439   -6.373641030325
 H   -5.365591132854   -2.067290727945   -5.363041576211
