15

 C    3.942235928649    2.275183867652    4.759809469224
 H    4.096605928649    1.510903867652    5.534669469224
 H    3.541495928649    3.199493867652    5.198399469224
 H    4.922015928649    2.501023867652    4.308659469224
 C    3.013145928649    1.744283867652    3.660899469224
 O    2.243575928649    2.584433867652    3.089149469224
 O    3.095115928649    0.502623867652    3.383269469224
NA    1.444455928649    0.829233867652    1.740979469224
 C   -3.547237300709   -2.065420227704   -4.363443220288
 O   -3.623770286086   -0.823001649291   -4.087557775652
 O   -2.925958953569   -2.929699085039   -3.661945308288
 C   -4.444266364178   -2.581768500285   -5.495590119897
 H   -4.534095095687   -3.676088045188   -5.455826178452
 H   -3.984226415003   -2.305438838430   -6.458160328631
 H   -5.434704041734   -2.107368904937   -5.447560874517
