15

 C    4.116315183348    2.376131422796    4.972693815944
 H    4.270685183348    1.611851422796    5.747553815945
 H    3.715575183348    3.300441422796    5.411283815945
 H    5.096095183348    2.601971422796    4.521543815944
 C    3.187225183348    1.845231422796    3.873783815945
 O    2.417655183348    2.685381422796    3.302033815945
 O    3.269195183348    0.603571422796    3.596153815945
NA    1.618535183348    0.930181422796    1.953863815944
 C   -3.789132481789   -2.205693847173   -4.659260764360
 O   -3.865665467166   -0.963275268760   -4.383375319724
 O   -3.167854134650   -3.069972704508   -3.957762852360
 C   -4.686161545258   -2.722042119754   -5.791407663969
 H   -4.775990276767   -3.816361664657   -5.751643722525
 H   -4.226121596084   -2.445712457899   -6.753977872703
 H   -5.676599222814   -2.247642524406   -5.743378418589
