15

 C    4.141183648305    2.390552502102    5.003105865476
 H    4.295553648305    1.626272502102    5.777965865476
 H    3.740443648305    3.314862502102    5.441695865476
 H    5.120963648305    2.616392502102    4.551955865476
 C    3.212093648305    1.859652502102    3.904195865476
 O    2.442523648305    2.699802502102    3.332445865476
 O    3.294063648305    0.617992502102    3.626565865476
NA    1.643403648305    0.944602502102    1.984275865476
 C   -3.823688936229   -2.225732935669   -4.701520413513
 O   -3.900221921606   -0.983314357255   -4.425634968877
 O   -3.202410589090   -3.090011793003   -4.000022501513
 C   -4.720717999698   -2.742081208249   -5.833667313122
 H   -4.810546731207   -3.836400753152   -5.793903371678
 H   -4.260678050524   -2.465751546395   -6.796237521857
 H   -5.711155677254   -2.267681612901   -5.785638067743
