15

 C    4.190920578219    2.419394660715    5.063929964539
 H    4.345290578219    1.655114660715    5.838789964539
 H    3.790180578219    3.343704660715    5.502519964539
 H    5.170700578219    2.645234660715    4.612779964539
 C    3.261830578219    1.888494660715    3.965019964539
 O    2.492260578219    2.728644660715    3.393269964539
 O    3.343800578219    0.646834660715    3.687389964539
NA    1.693140578219    0.973444660715    2.045099964539
 C   -3.892801845109   -2.265811112660   -4.786039711819
 O   -3.969334830486   -1.023392534246   -4.510154267184
 O   -3.271523497970   -3.130089969995   -4.084541799820
 C   -4.789830908578   -2.782159385241   -5.918186611428
 H   -4.879659640087   -3.876478930143   -5.878422669984
 H   -4.329790959404   -2.505829723386   -6.880756820163
 H   -5.780268586134   -2.307759789892   -5.870157366049
