15

 C    4.240657508133    2.448236819327    5.124754063602
 H    4.395027508133    1.683956819327    5.899614063602
 H    3.839917508133    3.372546819327    5.563344063602
 H    5.220437508133    2.674076819327    4.673604063602
 C    3.311567508133    1.917336819327    4.025844063602
 O    2.541997508133    2.757486819327    3.454094063602
 O    3.393537508133    0.675676819327    3.748214063602
NA    1.742877508133    1.002286819327    2.105924063602
 C   -3.961914753989   -2.305889289651   -4.870559010126
 O   -4.038447739366   -1.063470711237   -4.594673565490
 O   -3.340636406850   -3.170168146986   -4.169061098126
 C   -4.858943817459   -2.822237562232   -6.002705909735
 H   -4.948772548967   -3.916557107135   -5.962941968290
 H   -4.398903868284   -2.545907900377   -6.965276118469
 H   -5.849381495014   -2.347837966883   -5.954676664355
