15

 C    4.265525973091    2.462657898634    5.155166113134
 H    4.419895973091    1.698377898634    5.930026113134
 H    3.864785973091    3.386967898634    5.593756113134
 H    5.245305973091    2.688497898634    4.704016113134
 C    3.336435973091    1.931757898634    4.056256113134
 O    2.566865973091    2.771907898634    3.484506113134
 O    3.418405973091    0.690097898634    3.778626113134
NA    1.767745973091    1.016707898634    2.136336113134
 C   -3.996471208430   -2.325928378147   -4.912818659279
 O   -4.073004193806   -1.083509799733   -4.636933214643
 O   -3.375192861290   -3.190207235481   -4.211320747279
 C   -4.893500271899   -2.842276650727   -6.044965558888
 H   -4.983329003407   -3.936596195630   -6.005201617444
 H   -4.433460322724   -2.565946988873   -7.007535767622
 H   -5.883937949454   -2.367877055379   -5.996936313508
