14

 N    1.022753458094    0.774878173760   -0.190370931968
 C   -0.062693484809    1.597637143588   -0.187229060747
 H    0.128827355073    2.672694116087   -0.189733659289
 C    0.940889737412   -0.644392287966   -0.189353263084
 O    1.984632984730   -1.297634178027   -0.191834104396
 N   -0.332948351269   -1.186531919559   -0.178740028954
 C   -1.390634464082   -0.385179888684   -0.181233073782
 N   -2.622627580538   -0.988978917764   -0.226638896991
 H   -2.631562048859   -1.988672804275   -0.057068288426
 H   -3.441205324741   -0.462550598364    0.048261227806
 C   -1.322052465648    1.056196950511   -0.184716507448
 H   -2.210576181333    1.687514541755   -0.194198461475
 H    1.966693581021    1.149526386202   -0.193676828196
NA    1.025306142118    0.774045311401    0.909625790820
