14

 N    1.022594241936    0.774930121100   -0.258979992300
 C   -0.062852700967    1.597689090928   -0.255838121079
 H    0.128668138915    2.672746063427   -0.258342719621
 C    0.940730521254   -0.644340340626   -0.257962323416
 O    1.984473768572   -1.297582230687   -0.260443164728
 N   -0.333107567427   -1.186479972219   -0.247349089286
 C   -1.390793680240   -0.385127941344   -0.249842134114
 N   -2.622786796696   -0.988926970424   -0.295247957323
 H   -2.631721265017   -1.988620856935   -0.125677348758
 H   -3.441364540899   -0.462498651024   -0.020347832526
 C   -1.322211681806    1.056248897851   -0.253325567780
 H   -2.210735397491    1.687566489095   -0.262807521807
 H    1.966534364863    1.149578333542   -0.262285888528
NA    1.026075174696    0.773794399702    1.241015538775
