14

 N    1.022514633856    0.774956094770   -0.293284522466
 C   -0.062932309047    1.597715064598   -0.290142651245
 H    0.128588530835    2.672772037097   -0.292647249787
 C    0.940650913174   -0.644314366956   -0.292266853582
 O    1.984394160492   -1.297556257017   -0.294747694894
 N   -0.333187175507   -1.186453998549   -0.281653619452
 C   -1.390873288320   -0.385101967674   -0.284146664280
 N   -2.622866404776   -0.988900996754   -0.329552487489
 H   -2.631800873097   -1.988594883265   -0.159981878924
 H   -3.441444148979   -0.462472677354   -0.054652362692
 C   -1.322291289886    1.056274871521   -0.287630097946
 H   -2.210815005571    1.687592462765   -0.297112051973
 H    1.966454756783    1.149604307212   -0.296590418694
NA    1.026459690985    0.773668943852    1.406710412752
