14

 N    1.022474829817    0.774969081605   -0.310436787549
 C   -0.062972113086    1.597728051433   -0.307294916328
 H    0.128548726796    2.672785023932   -0.309799514870
 C    0.940611109135   -0.644301380121   -0.309419118665
 O    1.984354356453   -1.297543270182   -0.311899959977
 N   -0.333226979546   -1.186441011714   -0.298805884535
 C   -1.390913092359   -0.385088980839   -0.301298929363
 N   -2.622906208815   -0.988888009919   -0.346704752572
 H   -2.631840677136   -1.988581896430   -0.177134144007
 H   -3.441483953018   -0.462459690519   -0.071804627775
 C   -1.322331093925    1.056287858356   -0.304782363029
 H   -2.210854809610    1.687605449600   -0.314264317056
 H    1.966414952744    1.149617294047   -0.313742683777
NA    1.026651949129    0.773606215927    1.489557849740
