14

 N    1.019210898574    0.776034002076   -1.716922524356
 C   -0.066236044329    1.598792971904   -1.713780653135
 H    0.125284795553    2.673849944403   -1.716285251677
 C    0.937347177892   -0.643236459650   -1.715904855472
 O    1.981090425210   -1.296478349711   -1.718385696784
 N   -0.336490910789   -1.185376091243   -1.705291621342
 C   -1.394177023602   -0.384024060368   -1.707784666170
 N   -2.626170140058   -0.987823089448   -1.753190489379
 H   -2.635104608379   -1.987516975959   -1.583619880814
 H   -3.444747884261   -0.461394770048   -1.478290364582
 C   -1.325595025168    1.057352778827   -1.711268099836
 H   -2.214118740853    1.688670370071   -1.720750053863
 H    1.963151021501    1.150682214518   -1.720228420584
NA    1.042417116975    0.768462526087    8.283047682808
