14

 N    1.022315613659    0.775021028945   -0.379045847881
 C   -0.063131329244    1.597779998773   -0.375903976660
 H    0.128389510638    2.672836971272   -0.378408575202
 C    0.940451892977   -0.644249432781   -0.378028178997
 O    1.984195140295   -1.297491322842   -0.380509020309
 N   -0.333386195704   -1.186389064374   -0.367414944867
 C   -1.391072308517   -0.385037033499   -0.369907989695
 N   -2.623065424973   -0.988836062579   -0.415313812904
 H   -2.631999893294   -1.988529949090   -0.245743204339
 H   -3.441643169176   -0.462407743179   -0.140413688107
 C   -1.322490310083    1.056339805696   -0.373391423361
 H   -2.211014025768    1.687657396940   -0.382873377388
 H    1.966255736586    1.149669241387   -0.382351744109
NA    1.027420981707    0.773355304227    1.820947597695
