14

 N    1.022275809619    0.775034015780   -0.396198112964
 C   -0.063171133284    1.597792985608   -0.393056241743
 H    0.128349706598    2.672849958107   -0.395560840285
 C    0.940412088937   -0.644236445946   -0.395180444080
 O    1.984155336255   -1.297478336007   -0.397661285392
 N   -0.333425999744   -1.186376077539   -0.384567209950
 C   -1.391112112557   -0.385024046664   -0.387060254778
 N   -2.623105229013   -0.988823075744   -0.432466077987
 H   -2.632039697334   -1.988516962255   -0.262895469422
 H   -3.441682973216   -0.462394756344   -0.157565953190
 C   -1.322530114123    1.056352792531   -0.390543688444
 H   -2.211053829808    1.687670383775   -0.400025642471
 H    1.966215932546    1.149682228222   -0.399504009192
NA    1.027613239852    0.773292576303    1.903795034684
