14

 N    1.022196201540    0.775059989450   -0.430502643130
 C   -0.063250741363    1.597818959278   -0.427360771909
 H    0.128270098519    2.672875931777   -0.429865370451
 C    0.940332480858   -0.644210472276   -0.429484974246
 O    1.984075728176   -1.297452362337   -0.431965815558
 N   -0.333505607823   -1.186350103869   -0.418871740116
 C   -1.391191720636   -0.384998072994   -0.421364784944
 N   -2.623184837092   -0.988797102074   -0.466770608153
 H   -2.632119305413   -1.988490988585   -0.297199999588
 H   -3.441762581295   -0.462368782674   -0.191870483356
 C   -1.322609722202    1.056378766201   -0.424848218610
 H   -2.211133437887    1.687696357445   -0.434330172637
 H    1.966136324467    1.149708201892   -0.433808539358
NA    1.027997756140    0.773167120453    2.069489908661
