14

 N    1.022156397501    0.775072976285   -0.447654908213
 C   -0.063290545402    1.597831946113   -0.444513036992
 H    0.128230294480    2.672888918612   -0.447017635534
 C    0.940292676819   -0.644197485441   -0.446637239329
 O    1.984035924137   -1.297439375502   -0.449118080641
 N   -0.333545411862   -1.186337117034   -0.436024005199
 C   -1.391231524675   -0.384985086159   -0.438517050027
 N   -2.623224641131   -0.988784115239   -0.483922873236
 H   -2.632159109452   -1.988478001750   -0.314352264671
 H   -3.441802385334   -0.462355795839   -0.209022748439
 C   -1.322649526241    1.056391753036   -0.442000483693
 H   -2.211173241926    1.687709344280   -0.451482437720
 H    1.966096520428    1.149721188727   -0.450960804441
NA    1.028190014285    0.773104392528    2.152337345650
