14

 N    1.022036985382    0.775111936790   -0.499111703462
 C   -0.063409957521    1.597870906618   -0.495969832241
 H    0.128110882361    2.672927879117   -0.498474430783
 C    0.940173264700   -0.644158524936   -0.498094034578
 O    1.983916512018   -1.297400414997   -0.500574875890
 N   -0.333664823981   -1.186298156529   -0.487480800448
 C   -1.391350936794   -0.384946125654   -0.489973845276
 N   -2.623344053250   -0.988745154734   -0.535379668485
 H   -2.632278521571   -1.988439041245   -0.365809059920
 H   -3.441921797453   -0.462316835334   -0.260479543688
 C   -1.322768938360    1.056430713541   -0.493457278942
 H   -2.211292654045    1.687748304785   -0.502939232969
 H    1.965977108309    1.149760149232   -0.502417599690
NA    1.028766788718    0.772916208753    2.400879656615
