14

 N    1.021798161145    0.775189857800   -0.602025293960
 C   -0.063648781758    1.597948827628   -0.598883422739
 H    0.127872058124    2.673005800127   -0.601388021281
 C    0.939934440463   -0.644080603926   -0.601007625076
 O    1.983677687781   -1.297322493987   -0.603488466388
 N   -0.333903648218   -1.186220235519   -0.590394390946
 C   -1.391589761031   -0.384868204644   -0.592887435774
 N   -2.623582877487   -0.988667233724   -0.638293258983
 H   -2.632517345808   -1.988361120235   -0.468722650418
 H   -3.442160621690   -0.462238914324   -0.363393134186
 C   -1.323007762597    1.056508634551   -0.596370869440
 H   -2.211531478282    1.687826225795   -0.605852823467
 H    1.965738284072    1.149838070242   -0.605331190188
NA    1.029920337585    0.772539841204    2.897964278547
