14

 N    1.021718553066    0.775215831470   -0.636329824126
 C   -0.063728389837    1.597974801298   -0.633187952905
 H    0.127792450045    2.673031773797   -0.635692551447
 C    0.939854832384   -0.644054630256   -0.635312155242
 O    1.983598079702   -1.297296520317   -0.637792996554
 N   -0.333983256297   -1.186194261849   -0.624698921112
 C   -1.391669369110   -0.384842230974   -0.627191965940
 N   -2.623662485566   -0.988641260054   -0.672597789149
 H   -2.632596953887   -1.988335146565   -0.503027180584
 H   -3.442240229769   -0.462212940654   -0.397697664352
 C   -1.323087370676    1.056534608221   -0.630675399606
 H   -2.211611086361    1.687852199465   -0.640157353633
 H    1.965658675993    1.149864043912   -0.639635720354
NA    1.030304853874    0.772414385354    3.063659152524
