14

 N    1.021280708630    0.775358686655   -0.825004740040
 C   -0.064166234273    1.598117656483   -0.821862868819
 H    0.127354605609    2.673174628982   -0.824367467361
 C    0.939416987948   -0.643911775071   -0.823987071156
 O    1.983160235266   -1.297153665132   -0.826467912468
 N   -0.334421100733   -1.186051406664   -0.813373837026
 C   -1.392107213546   -0.384699375789   -0.815866881854
 N   -2.624100330002   -0.988498404869   -0.861272705063
 H   -2.633034798323   -1.988192291380   -0.691702096498
 H   -3.442678074205   -0.462070085469   -0.586372580266
 C   -1.323525215112    1.056677463406   -0.819350315520
 H   -2.212048930797    1.687995054650   -0.828832269547
 H    1.965220831557    1.150006899097   -0.828310636268
NA    1.032419693463    0.771724378181    3.974980959399
