14

 N    1.021240904591    0.775371673490   -0.842157005123
 C   -0.064206038312    1.598130643318   -0.839015133902
 H    0.127314801570    2.673187615817   -0.841519732444
 C    0.939377183909   -0.643898788236   -0.841139336239
 O    1.983120431227   -1.297140678297   -0.843620177551
 N   -0.334460904772   -1.186038419829   -0.830526102109
 C   -1.392147017585   -0.384686388954   -0.833019146937
 N   -2.624140134041   -0.988485418034   -0.878424970146
 H   -2.633074602362   -1.988179304545   -0.708854361581
 H   -3.442717878244   -0.462057098634   -0.603524845349
 C   -1.323565019151    1.056690450241   -0.836502580603
 H   -2.212088734836    1.688008041485   -0.845984534630
 H    1.965181027518    1.150019885932   -0.845462901351
NA    1.032611951608    0.771661650256    4.057828396388
