14

 N    1.021201100551    0.775384660325   -0.859309270206
 C   -0.064245842352    1.598143630153   -0.856167398985
 H    0.127274997530    2.673200602652   -0.858671997527
 C    0.939337379869   -0.643885801401   -0.858291601322
 O    1.983080627187   -1.297127691462   -0.860772442634
 N   -0.334500708812   -1.186025432994   -0.847678367192
 C   -1.392186821625   -0.384673402119   -0.850171412020
 N   -2.624179938081   -0.988472431199   -0.895577235229
 H   -2.633114406402   -1.988166317710   -0.726006626664
 H   -3.442757682284   -0.462044111799   -0.620677110432
 C   -1.323604823191    1.056703437076   -0.853654845686
 H   -2.212128538876    1.688021028320   -0.863136799713
 H    1.965141223478    1.150032872767   -0.862615166434
NA    1.032804209752    0.771598922331    4.140675833377
