14

 N    1.021121492472    0.775410633995   -0.893613800372
 C   -0.064325450431    1.598169603823   -0.890471929151
 H    0.127195389451    2.673226576322   -0.892976527693
 C    0.939257771790   -0.643859827731   -0.892596131488
 O    1.983001019108   -1.297101717792   -0.895076972800
 N   -0.334580316891   -1.185999459324   -0.881982897358
 C   -1.392266429704   -0.384647428449   -0.884475942186
 N   -2.624259546160   -0.988446457529   -0.929881765395
 H   -2.633194014481   -1.988140344040   -0.760311156830
 H   -3.442837290363   -0.462018138129   -0.654981640598
 C   -1.323684431270    1.056729410746   -0.887959375852
 H   -2.212208146955    1.688047001990   -0.897441329879
 H    1.965061615399    1.150058846437   -0.896919696600
NA    1.033188726041    0.771473466481    4.306370707354
