14

 N    1.021081688433    0.775423620830   -0.910766065455
 C   -0.064365254470    1.598182590658   -0.907624194234
 H    0.127155585412    2.673239563157   -0.910128792776
 C    0.939217967751   -0.643846840896   -0.909748396571
 O    1.982961215069   -1.297088730957   -0.912229237883
 N   -0.334620120930   -1.185986472489   -0.899135162441
 C   -1.392306233743   -0.384634441614   -0.901628207269
 N   -2.624299350199   -0.988433470694   -0.947034030478
 H   -2.633233818520   -1.988127357205   -0.777463421913
 H   -3.442877094402   -0.462005151294   -0.672133905681
 C   -1.323724235309    1.056742397581   -0.905111640935
 H   -2.212247950994    1.688059988825   -0.914593594962
 H    1.965021811360    1.150071833272   -0.914071961683
NA    1.033380984186    0.771410738556    4.389218144343
