14

 N    1.020922472275    0.775475568171   -0.979375125787
 C   -0.064524470628    1.598234537999   -0.976233254566
 H    0.126996369254    2.673291510498   -0.978737853108
 C    0.939058751593   -0.643794893555   -0.978357456903
 O    1.982801998911   -1.297036783616   -0.980838298215
 N   -0.334779337088   -1.185934525148   -0.967744222773
 C   -1.392465449901   -0.384582494273   -0.970237267601
 N   -2.624458566357   -0.988381523353   -1.015643090810
 H   -2.633393034678   -1.988075409864   -0.846072482245
 H   -3.443036310560   -0.461953203953   -0.740742966013
 C   -1.323883451467    1.056794344922   -0.973720701267
 H   -2.212407167152    1.688111936166   -0.983202655294
 H    1.964862595202    1.150123780613   -0.982681022015
NA    1.034150016763    0.771159826857    4.720607892297
