14

 N    1.020882668235    0.775488555006   -0.996527390870
 C   -0.064564274668    1.598247524834   -0.993385519649
 H    0.126956565214    2.673304497333   -0.995890118191
 C    0.939018947553   -0.643781906720   -0.995509721986
 O    1.982762194871   -1.297023796781   -0.997990563298
 N   -0.334819141128   -1.185921538313   -0.984896487856
 C   -1.392505253941   -0.384569507438   -0.987389532684
 N   -2.624498370397   -0.988368536518   -1.032795355893
 H   -2.633432838718   -1.988062423029   -0.863224747328
 H   -3.443076114600   -0.461940217118   -0.757895231096
 C   -1.323923255507    1.056807331757   -0.990872966350
 H   -2.212446971192    1.688124923001   -1.000354920377
 H    1.964822791162    1.150136767448   -0.999833287098
NA    1.034342274908    0.771097098932    4.803455329286
