14

 N    1.020723452077    0.775540502346   -1.065136451202
 C   -0.064723490826    1.598299472174   -1.061994579981
 H    0.126797349056    2.673356444673   -1.064499178523
 C    0.938859731395   -0.643729959380   -1.064118782318
 O    1.982602978713   -1.296971849441   -1.066599623630
 N   -0.334978357286   -1.185869590973   -1.053505548188
 C   -1.392664470099   -0.384517560098   -1.055998593016
 N   -2.624657586555   -0.988316589178   -1.101404416225
 H   -2.633592054876   -1.988010475689   -0.931833807660
 H   -3.443235330758   -0.461888269778   -0.826504291428
 C   -1.324082471665    1.056859279097   -1.059482026682
 H   -2.212606187350    1.688176870341   -1.068963980709
 H    1.964663575004    1.150188714788   -1.068442347430
NA    1.035111307486    0.770846187233    5.134845077240
