14

 N    1.020524431879    0.775605436521   -1.150897776617
 C   -0.064922511024    1.598364406349   -1.147755905396
 H    0.126598328858    2.673421378848   -1.150260503938
 C    0.938660711197   -0.643665025205   -1.149880107733
 O    1.982403958515   -1.296906915266   -1.152360949045
 N   -0.335177377484   -1.185804656798   -1.139266873603
 C   -1.392863490297   -0.384452625923   -1.141759918431
 N   -2.624856606753   -0.988251655003   -1.187165741640
 H   -2.633791075074   -1.987945541514   -1.017595133075
 H   -3.443434350956   -0.461823335603   -0.912265616843
 C   -1.324281491863    1.056924213272   -1.145243352097
 H   -2.212805207548    1.688241804516   -1.154725306124
 H    1.964464554806    1.150253648963   -1.154203672845
NA    1.036072598208    0.770532547608    5.549082262183
