14

 N    1.020365215721    0.775657383861   -1.219506836949
 C   -0.065081727182    1.598416353689   -1.216364965728
 H    0.126439112700    2.673473326188   -1.218869564270
 C    0.938501495039   -0.643613077865   -1.218489168065
 O    1.982244742357   -1.296854967926   -1.220970009377
 N   -0.335336593642   -1.185752709458   -1.207875933935
 C   -1.393022706455   -0.384400678583   -1.210368978763
 N   -2.625015822911   -0.988199707663   -1.255774801972
 H   -2.633950291232   -1.987893594174   -1.086204193407
 H   -3.443593567114   -0.461771388263   -0.980874677175
 C   -1.324440708021    1.056976160612   -1.213852412429
 H   -2.212964423706    1.688293751856   -1.223334366456
 H    1.964305338648    1.150305596303   -1.222812733177
NA    1.036841630786    0.770281635909    5.880472010138
