14

 N    1.020285607642    0.775683357531   -1.253811367115
 C   -0.065161335261    1.598442327359   -1.250669495894
 H    0.126359504621    2.673499299858   -1.253174094436
 C    0.938421886960   -0.643587104195   -1.252793698231
 O    1.982165134278   -1.296828994256   -1.255274539543
 N   -0.335416201721   -1.185726735788   -1.242180464101
 C   -1.393102314534   -0.384374704913   -1.244673508929
 N   -2.625095430990   -0.988173733993   -1.290079332138
 H   -2.634029899311   -1.987867620504   -1.120508723573
 H   -3.443673175193   -0.461745414593   -1.015179207341
 C   -1.324520316100    1.057002134282   -1.248156942595
 H   -2.213044031785    1.688319725526   -1.257638896622
 H    1.964225730569    1.150331569973   -1.257117263343
NA    1.037226147075    0.770156180059    6.046166884115
