14

 N    1.020245803602    0.775696344366   -1.270963632198
 C   -0.065201139301    1.598455314194   -1.267821760977
 H    0.126319700581    2.673512286693   -1.270326359519
 C    0.938382082920   -0.643574117360   -1.269945963314
 O    1.982125330238   -1.296816007421   -1.272426804626
 N   -0.335456005761   -1.185713748953   -1.259332729184
 C   -1.393142118574   -0.384361718078   -1.261825774012
 N   -2.625135235030   -0.988160747158   -1.307231597221
 H   -2.634069703351   -1.987854633669   -1.137660988656
 H   -3.443712979233   -0.461732427758   -1.032331472424
 C   -1.324560120140    1.057015121117   -1.265309207678
 H   -2.213083835825    1.688332712361   -1.274791161705
 H    1.964185926529    1.150344556808   -1.274269528426
NA    1.037418405219    0.770093452134    6.129014321104
