14

 N    1.020086587444    0.775748291706   -1.339572692530
 C   -0.065360355459    1.598507261534   -1.336430821309
 H    0.126160484423    2.673564234033   -1.338935419851
 C    0.938222866762   -0.643522170020   -1.338555023646
 O    1.981966114080   -1.296764060081   -1.341035864958
 N   -0.335615221919   -1.185661801613   -1.327941789516
 C   -1.393301334732   -0.384309770738   -1.330434834344
 N   -2.625294451188   -0.988108799818   -1.375840657553
 H   -2.634228919509   -1.987802686329   -1.206270048988
 H   -3.443872195391   -0.461680480418   -1.100940532756
 C   -1.324719336298    1.057067068457   -1.333918268010
 H   -2.213243051983    1.688384659701   -1.343400222037
 H    1.964026710371    1.150396504148   -1.342878588758
NA    1.038187437797    0.769842540435    6.460404069058
