14

 N    1.019967175325    0.775787252211   -1.391029487779
 C   -0.065479767578    1.598546222039   -1.387887616558
 H    0.126041072304    2.673603194538   -1.390392215100
 C    0.938103454643   -0.643483209515   -1.390011818895
 O    1.981846701961   -1.296725099576   -1.392492660207
 N   -0.335734634038   -1.185622841108   -1.379398584765
 C   -1.393420746851   -0.384270810233   -1.381891629593
 N   -2.625413863307   -0.988069839313   -1.427297452802
 H   -2.634348331628   -1.987763725824   -1.257726844237
 H   -3.443991607510   -0.461641519913   -1.152397328005
 C   -1.324838748417    1.057106028962   -1.385375063259
 H   -2.213362464102    1.688423620206   -1.394857017286
 H    1.963907298252    1.150435464653   -1.394335384007
NA    1.038764212231    0.769654356660    6.708946380024
