14

 N    1.019887567246    0.775813225881   -1.425334017945
 C   -0.065559375657    1.598572195709   -1.422192146724
 H    0.125961464225    2.673629168208   -1.424696745266
 C    0.938023846564   -0.643457235845   -1.424316349061
 O    1.981767093882   -1.296699125906   -1.426797190373
 N   -0.335814242117   -1.185596867438   -1.413703114931
 C   -1.393500354930   -0.384244836563   -1.416196159759
 N   -2.625493471386   -0.988043865643   -1.461601982968
 H   -2.634427939707   -1.987737752154   -1.292031374403
 H   -3.444071215589   -0.461615546243   -1.186701858171
 C   -1.324918356496    1.057132002632   -1.419679593425
 H   -2.213442072181    1.688449593876   -1.429161547452
 H    1.963827690173    1.150461438323   -1.428639914173
NA    1.039148728520    0.769528900810    6.874641254001
