14

 N    1.019728351088    0.775865173221   -1.493943078277
 C   -0.065718591815    1.598624143049   -1.490801207056
 H    0.125802248067    2.673681115548   -1.493305805598
 C    0.937864630406   -0.643405288505   -1.492925409393
 O    1.981607877724   -1.296647178566   -1.495406250705
 N   -0.335973458275   -1.185544920098   -1.482312175263
 C   -1.393659571088   -0.384192889223   -1.484805220091
 N   -2.625652687544   -0.987991918303   -1.530211043300
 H   -2.634587155865   -1.987685804814   -1.360640434735
 H   -3.444230431747   -0.461563598903   -1.255310918503
 C   -1.325077572654    1.057183949972   -1.488288653757
 H   -2.213601288339    1.688501541216   -1.497770607784
 H    1.963668474015    1.150513385663   -1.497248974505
NA    1.039917761097    0.769277989111    7.206031001956
