14

 N    1.019688547049    0.775878160056   -1.511095343360
 C   -0.065758395854    1.598637129884   -1.507953472139
 H    0.125762444028    2.673694102383   -1.510458070681
 C    0.937824826367   -0.643392301670   -1.510077674476
 O    1.981568073685   -1.296634191731   -1.512558515788
 N   -0.336013262314   -1.185531933263   -1.499464440346
 C   -1.393699375127   -0.384179902388   -1.501957485174
 N   -2.625692491583   -0.987978931468   -1.547363308383
 H   -2.634626959904   -1.987672817979   -1.377792699818
 H   -3.444270235786   -0.461550612068   -1.272463183586
 C   -1.325117376693    1.057196936807   -1.505440918840
 H   -2.213641092378    1.688514528051   -1.514922872867
 H    1.963628669976    1.150526372498   -1.514401239588
NA    1.040110019242    0.769215261186    7.288878438945
