14

 N    1.019648743009    0.775891146891   -1.528247608443
 C   -0.065798199894    1.598650116719   -1.525105737222
 H    0.125722639988    2.673707089218   -1.527610335764
 C    0.937785022327   -0.643379314835   -1.527229939559
 O    1.981528269645   -1.296621204896   -1.529710780871
 N   -0.336053066354   -1.185518946428   -1.516616705429
 C   -1.393739179167   -0.384166915553   -1.519109750257
 N   -2.625732295623   -0.987965944633   -1.564515573466
 H   -2.634666763944   -1.987659831144   -1.394944964901
 H   -3.444310039826   -0.461537625233   -1.289615448669
 C   -1.325157180733    1.057209923642   -1.522593183923
 H   -2.213680896418    1.688527514886   -1.532075137950
 H    1.963588865936    1.150539359333   -1.531553504671
NA    1.040302277386    0.769152533261    7.371725875933
