14

 N    1.019608938970    0.775904133726   -1.545399873526
 C   -0.065838003933    1.598663103554   -1.542258002305
 H    0.125682835949    2.673720076053   -1.544762600847
 C    0.937745218288   -0.643366328000   -1.544382204642
 O    1.981488465606   -1.296608218061   -1.546863045954
 N   -0.336092870393   -1.185505959593   -1.533768970512
 C   -1.393778983206   -0.384153928718   -1.536262015340
 N   -2.625772099662   -0.987952957798   -1.581667838549
 H   -2.634706567983   -1.987646844309   -1.412097229984
 H   -3.444349843865   -0.461524638398   -1.306767713752
 C   -1.325196984772    1.057222910477   -1.539745449006
 H   -2.213720700457    1.688540501721   -1.549227403033
 H    1.963549061897    1.150552346168   -1.548705769754
NA    1.040494535531    0.769089805336    7.454573312922
