14

 N    1.019529330890    0.775930107396   -1.579704403692
 C   -0.065917612013    1.598689077224   -1.576562532471
 H    0.125603227869    2.673746049723   -1.579067131013
 C    0.937665610208   -0.643340354330   -1.578686734808
 O    1.981408857526   -1.296582244391   -1.581167576120
 N   -0.336172478473   -1.185479985923   -1.568073500678
 C   -1.393858591286   -0.384127955048   -1.570566545506
 N   -2.625851707742   -0.987926984128   -1.615972368715
 H   -2.634786176063   -1.987620870639   -1.446401760150
 H   -3.444429451945   -0.461498664728   -1.341072243918
 C   -1.325276592852    1.057248884147   -1.574049979172
 H   -2.213800308537    1.688566475391   -1.583531933199
 H    1.963469453817    1.150578319838   -1.583010299920
NA    1.040879051820    0.768964349486    7.620268186899
