14

 N    1.019290506653    0.776008028406   -1.682617994190
 C   -0.066156436250    1.598766998234   -1.679476122969
 H    0.125364403632    2.673823970733   -1.681980721511
 C    0.937426785971   -0.643262433320   -1.681600325306
 O    1.981170033289   -1.296504323381   -1.684081166618
 N   -0.336411302710   -1.185402064913   -1.670987091176
 C   -1.394097415523   -0.384050034038   -1.673480136004
 N   -2.626090531979   -0.987849063118   -1.718885959213
 H   -2.635025000300   -1.987542949629   -1.549315350648
 H   -3.444668276182   -0.461420743718   -1.443985834416
 C   -1.325515417089    1.057326805157   -1.676963569670
 H   -2.214039132774    1.688644396401   -1.686445523697
 H    1.963230629580    1.150656240848   -1.685923890418
NA    1.042032600687    0.768587981937    8.117352808831
