6

 H   -0.464162020400    1.507267083799    2.469651904035
 H   -0.014105020400   -0.154657916201    2.926151904035
 H   -1.676072020400    0.203953083799    2.394925904035
 C   -0.611003020400    0.441464083799    2.209568904035
 S   -0.127834020400    0.092363083799    0.462285904035
RB    0.160052585386   -0.115641779854   -0.578797800047
