6

 H   -0.497856427230    1.531612087554    2.591500913906
 H   -0.047799427230   -0.130312912446    3.048000913906
 H   -1.709766427230    0.228298087554    2.516774913906
 C   -0.644697427230    0.465809087554    2.331417913906
 S   -0.161528427230    0.116708087554    0.584134913906
RB    0.178701197789   -0.129115842219   -0.646236736373
