6

 H   -0.531550834061    1.555957091308    2.713349923777
 H   -0.081493834061   -0.105967908692    3.169849923777
 H   -1.743460834061    0.252643091308    2.638623923777
 C   -0.678391834061    0.490154091308    2.453266923777
 S   -0.195222834061    0.141053091308    0.705983923777
RB    0.197349810193   -0.142589904583   -0.713675672699
