6

 H   -0.548398037476    1.568129593185    2.774274428712
 H   -0.098341037476   -0.093795406815    3.230774428712
 H   -1.760308037476    0.264815593185    2.699548428712
 C   -0.695239037476    0.502326593185    2.514191428712
 S   -0.212070037476    0.153225593185    0.766908428712
RB    0.206674116394   -0.149326935765   -0.747395140862
