6

 H   -0.582092444307    1.592474596939    2.896123438583
 H   -0.132035444307   -0.069450403061    3.352623438583
 H   -1.794002444307    0.289160596939    2.821397438583
 C   -0.728933444307    0.526671596939    2.636040438583
 S   -0.245764444307    0.177570596939    0.888757438583
RB    0.225322728797   -0.162800998130   -0.814834077188
