6

 H   -1.963563124362    2.590619750867    7.891932843282
 H   -1.513506124362    0.928694750867    8.348432843282
 H   -3.175473124362    1.287305750867    7.817206843282
 C   -2.110404124362    1.524816750867    7.631849843282
 S   -1.627235124362    1.175715750867    5.884566843282
RB    0.989915837329   -0.715237555073   -3.579830466556
