6

 H   -0.683175664799    1.665509608202    3.261670468195
 H   -0.233118664799    0.003584608202    3.718170468195
 H   -1.895085664799    0.362195608202    3.186944468195
 C   -0.830016664799    0.599706608202    3.001587468195
 S   -0.346847664799    0.250605608202    1.254304468195
RB    0.281268566007   -0.203223185223   -1.017150886166
