6

 H   -0.767411681875    1.726372117588    3.566292992872
 H   -0.317354681875    0.064447117588    4.022792992872
 H   -1.979321681875    0.423058117588    3.491566992872
 C   -0.914252681875    0.660569117588    3.306209992872
 S   -0.431083681875    0.311468117588    1.558926992872
RB    0.327890097015   -0.236908341134   -1.185748226982
