6

 H   -0.801106088706    1.750717121343    3.688142002742
 H   -0.351049088706    0.088792121343    4.144642002742
 H   -2.013016088706    0.447403121343    3.613416002742
 C   -0.947947088706    0.684914121343    3.428059002742
 S   -0.464778088706    0.335813121343    1.680776002742
RB    0.346538709418   -0.250382403499   -1.253187163308
