6

 H   -0.817953292121    1.762889623220    3.749066507678
 H   -0.367896292121    0.100964623220    4.205566507678
 H   -2.029863292121    0.459575623220    3.674340507678
 C   -0.964794292121    0.697086623220    3.488983507678
 S   -0.481625292121    0.347985623220    1.741700507678
RB    0.355863015620   -0.257119434681   -1.286906631471
