6

 H   -0.834800495537    1.775062125097    3.809991012613
 H   -0.384743495537    0.113137125097    4.266491012613
 H   -2.046710495537    0.471748125097    3.735265012613
 C   -0.981641495537    0.709259125097    3.549908012613
 S   -0.498472495537    0.360158125097    1.802625012613
RB    0.365187321822   -0.263856465863   -1.320626099634
