6

 H   -0.851647698952    1.787234626974    3.870915517548
 H   -0.401590698952    0.125309626974    4.327415517548
 H   -2.063557698952    0.483920626974    3.796189517548
 C   -0.998488698952    0.721431626974    3.610832517548
 S   -0.515319698952    0.372330626974    1.863549517548
RB    0.374511628023   -0.270593497045   -1.354345567797
