6

 H   -0.885342105783    1.811579630728    3.992764527419
 H   -0.435285105783    0.149654630728    4.449264527419
 H   -2.097252105783    0.508265630728    3.918038527419
 C   -1.032183105783    0.745776630728    3.732681527419
 S   -0.549014105783    0.396675630728    1.985398527419
RB    0.393160240426   -0.284067559410   -1.421784504123
