6

 H   -0.902189309198    1.823752132606    4.053689032354
 H   -0.452132309198    0.161827132606    4.510189032354
 H   -2.114099309198    0.520438132606    3.978963032354
 C   -1.049030309198    0.757949132606    3.793606032354
 S   -0.565861309198    0.408848132606    2.046323032354
RB    0.402484546628   -0.290804590592   -1.455503972286
