6

 H   -0.919036512613    1.835924634483    4.114613537290
 H   -0.468979512613    0.173999634483    4.571113537290
 H   -2.130946512613    0.532610634483    4.039887537290
 C   -1.065877512613    0.770121634483    3.854530537290
 S   -0.582708512613    0.421020634483    2.107247537290
RB    0.411808852830   -0.297541621774   -1.489223440449
