6

 H   -0.952730919444    1.860269638237    4.236462547160
 H   -0.502673919444    0.198344638237    4.692962547160
 H   -2.164640919444    0.556955638237    4.161736547160
 C   -1.099571919444    0.794466638237    3.976379547160
 S   -0.616402919444    0.445365638237    2.229096547160
RB    0.430457465233   -0.311015684139   -1.556662376775
