6

 H   -0.969578122859    1.872442140114    4.297387052096
 H   -0.519521122859    0.210517140114    4.753887052096
 H   -2.181488122859    0.569128140114    4.222661052096
 C   -1.116419122859    0.806639140114    4.037304052096
 S   -0.633250122859    0.457538140114    2.290021052096
RB    0.439781771434   -0.317752715321   -1.590381844938
