6

 H   -1.003272529690    1.896787143868    4.419236061967
 H   -0.553215529690    0.234862143868    4.875736061967
 H   -2.215182529690    0.593473143868    4.344510061967
 C   -1.150113529690    0.830984143868    4.159153061967
 S   -0.666944529690    0.481883143868    2.411870061967
RB    0.458430383838   -0.331226777685   -1.657820781264
