6

 H   -1.020119733105    1.908959645746    4.480160566902
 H   -0.570062733105    0.247034645746    4.936660566902
 H   -2.232029733105    0.605645645746    4.405434566902
 C   -1.166960733105    0.843156645746    4.220077566902
 S   -0.683791733105    0.494055645746    2.472794566902
RB    0.467754690039   -0.337963808868   -1.691540249427
