6

 H   -1.070661343351    1.945477151377    4.662934081708
 H   -0.620604343351    0.283552151377    5.119434081708
 H   -2.282571343351    0.642163151377    4.588208081708
 C   -1.217502343351    0.879674151377    4.402851081708
 S   -0.734333343351    0.530573151377    2.655568081708
RB    0.495727608644   -0.358174902414   -1.792698653916
