6

 H   -1.104355750182    1.969822155131    4.784783091579
 H   -0.654298750182    0.307897155131    5.241283091579
 H   -2.316265750182    0.666508155131    4.710057091579
 C   -1.251196750182    0.904019155131    4.524700091579
 S   -0.768027750182    0.554918155131    2.777417091579
RB    0.514376221047   -0.371648964779   -1.860137590242
