6

 H   -1.138050157012    1.994167158886    4.906632101449
 H   -0.687993157012    0.332242158886    5.363132101449
 H   -2.349960157012    0.690853158886    4.831906101449
 C   -1.284891157012    0.928364158886    4.646549101449
 S   -0.801722157012    0.579263158886    2.899266101449
RB    0.533024833450   -0.385123027143   -1.927576526568
