6

 H   -1.154897360428    2.006339660763    4.967556606385
 H   -0.704840360428    0.344414660763    5.424056606385
 H   -2.366807360428    0.703025660763    4.892830606385
 C   -1.301738360428    0.940536660763    4.707473606385
 S   -0.818569360428    0.591435660763    2.960190606385
RB    0.542349139652   -0.391860058326   -1.961295994731
