6

 H   -1.239133377504    2.067202170149    5.272179131062
 H   -0.789076377504    0.405277170149    5.728679131062
 H   -2.451043377504    0.763888170149    5.197453131062
 C   -1.385974377504    1.001399170149    5.012096131062
 S   -0.902805377504    0.652298170149    3.264813131062
RB    0.588970670660   -0.425545214237   -2.129893335546
