6

 H   -1.323369394581    2.128064679535    5.576801655738
 H   -0.873312394581    0.466139679535    6.033301655738
 H   -2.535279394581    0.824750679535    5.502075655738
 C   -1.470210394581    1.062261679535    5.316718655738
 S   -0.987041394581    0.713160679535    3.569435655738
RB    0.635592201668   -0.459230370148   -2.298490676361
