6

 H   -1.357063801411    2.152409683289    5.698650665609
 H   -0.907006801411    0.490484683289    6.155150665609
 H   -2.568973801411    0.849095683289    5.623924665609
 C   -1.503904801411    1.086606683289    5.438567665609
 S   -1.020735801411    0.737505683289    3.691284665609
RB    0.654240814071   -0.472704432512   -2.365929612687
