6

 H   -1.390758208242    2.176754687043    5.820499675480
 H   -0.940701208242    0.514829687043    6.276999675480
 H   -2.602668208242    0.873440687043    5.745773675480
 C   -1.537599208242    1.110951687043    5.560416675480
 S   -1.054430208242    0.761850687043    3.813133675480
RB    0.672889426475   -0.486178494877   -2.433368549014
