6

 H   -1.474994225318    2.237617196429    6.125122200157
 H   -1.024937225318    0.575692196429    6.581622200157
 H   -2.686904225318    0.934303196429    6.050396200157
 C   -1.621835225318    1.171814196429    5.865039200157
 S   -1.138666225318    0.822713196429    4.117756200157
RB    0.719510957483   -0.519863650788   -2.601965889829
