6

 H   -1.508688632149    2.261962200183    6.246971210027
 H   -1.058631632149    0.600037200183    6.703471210027
 H   -2.720598632149    0.958648200183    6.172245210027
 C   -1.655529632149    1.196159200183    5.986888210027
 S   -1.172360632149    0.847058200183    4.239605210027
RB    0.738159569886   -0.533337713152   -2.669404826155
