6

 H   -1.525535835564    2.274134702061    6.307895714963
 H   -1.075478835564    0.612209702061    6.764395714963
 H   -2.737445835564    0.970820702061    6.233169714963
 C   -1.672376835564    1.208331702061    6.047812714963
 S   -1.189207835564    0.859230702061    4.300529714963
RB    0.747483876087   -0.540074744335   -2.703124294318
