6

 H   -1.694007869717    2.395859720832    6.917140764316
 H   -1.243950869717    0.733934720832    7.373640764316
 H   -2.905917869717    1.092545720832    6.842414764316
 C   -1.840848869717    1.330056720832    6.657057764316
 S   -1.357679869717    0.980955720832    4.909774764316
RB    0.840726938103   -0.607445056157   -3.040318975948
