6

 H   -1.811938293625    2.481067233972    7.343612298864
 H   -1.361881293625    0.819142233972    7.800112298864
 H   -3.023848293625    1.177753233972    7.268886298864
 C   -1.958779293625    1.415264233972    7.083529298864
 S   -1.475610293625    1.066163233972    5.336246298864
RB    0.905997081515   -0.654604274433   -3.276355253089
