6

 H   -1.896174310701    2.541929743358    7.648234823540
 H   -1.446117310701    0.880004743358    8.104734823540
 H   -3.108084310701    1.238615743358    7.573508823540
 C   -2.043015310701    1.476126743358    7.388151823540
 S   -1.559846310701    1.127025743358    5.640868823540
RB    0.952618612523   -0.688289430344   -3.444952593904
