6

 H   -1.913021514116    2.554102245235    7.709159328476
 H   -1.462964514116    0.892177245235    8.165659328476
 H   -3.124931514116    1.250788245235    7.634433328476
 C   -2.059862514116    1.488299245235    7.449076328476
 S   -1.576693514116    1.139198245235    5.701793328476
RB    0.961942918724   -0.695026461526   -3.478672062067
