23

 C   -4.372334879359    0.157274665401    0.000000000000
 C   -3.472204879359   -1.049875334599    0.000000000000
 O   -4.213444879359   -2.163075334599    0.000000000000
 C   -3.521794879359   -3.437005334599    0.000000000000
 O   -2.230014879359   -1.045365334599    0.000000000000
 H   -3.792094879359    1.082534665401    0.000000000000
 H   -5.023754879359    0.118964665401    0.882660000000
 H   -5.023754879359    0.118964665401   -0.882660000000
 H   -4.333454879359   -4.173755334599    0.000000000000
 H   -2.901324879359   -3.527955334599    0.900440000000
 H   -2.901324879359   -3.527955334599   -0.900440000000
RB    0.616965120641    0.289214665401    0.000000000000
 O    1.522416952150    0.713663697461    0.000000000000
 C    2.764618750578    0.718177684847    0.000000000000
 O    3.505861998623    1.831382048532    0.000000000000
 C    2.814207684968    3.105311593994    0.000000000000
 H    3.625870275655    3.842056127587    0.000000000000
 H    2.193739383868    3.196261456249   -0.900440200117
 H    2.193739383868    3.196261456249    0.900440200117
 C    3.664745069673   -0.488970296833    0.000000000000
 H    3.084502676965   -1.414232631635    0.000000000000
 H    4.316160105733   -0.450658339535   -0.882661898533
 H    4.316160105733   -0.450658339535    0.882661898533
