23

 C   -4.401107820635    0.143786761738    0.000000000000
 C   -3.500977820635   -1.063363238262    0.000000000000
 O   -4.242217820635   -2.176563238262    0.000000000000
 C   -3.550567820635   -3.450493238262    0.000000000000
 O   -2.258787820635   -1.058853238262    0.000000000000
 H   -3.820867820635    1.069046761738    0.000000000000
 H   -5.052527820635    0.105476761738    0.882660000000
 H   -5.052527820635    0.105476761738   -0.882660000000
 H   -4.362227820635   -4.187243238262    0.000000000000
 H   -2.930097820635   -3.541443238262    0.900440000000
 H   -2.930097820635   -3.541443238262   -0.900440000000
RB    0.588192179365    0.275726761738    0.000000000000
 O    1.584189194025    0.742620697005    0.000000000000
 C    2.826390992453    0.747134684391    0.000000000000
 O    3.567634240498    1.860339048076    0.000000000000
 C    2.875979926842    3.134268593538    0.000000000000
 H    3.687642517530    3.871013127130    0.000000000000
 H    2.255511625743    3.225218455792   -0.900440200117
 H    2.255511625743    3.225218455792    0.900440200117
 C    3.726517311547   -0.460013297289    0.000000000000
 H    3.146274918839   -1.385275632092    0.000000000000
 H    4.377932347608   -0.421701339991   -0.882661898533
 H    4.377932347608   -0.421701339991    0.882661898533
