23

 C   -4.487426644465    0.103323050751    0.000000000000
 C   -3.587296644465   -1.103826949249    0.000000000000
 O   -4.328536644465   -2.217026949249    0.000000000000
 C   -3.636886644465   -3.490956949249    0.000000000000
 O   -2.345106644465   -1.099316949249    0.000000000000
 H   -3.907186644465    1.028583050751    0.000000000000
 H   -5.138846644465    0.065013050751    0.882660000000
 H   -5.138846644465    0.065013050751   -0.882660000000
 H   -4.448546644465   -4.227706949249    0.000000000000
 H   -3.016416644465   -3.581906949249    0.900440000000
 H   -3.016416644465   -3.581906949249   -0.900440000000
RB    0.501873355535    0.235263050751    0.000000000000
 O    1.769505919648    0.829491695636    0.000000000000
 C    3.011707718076    0.834005683022    0.000000000000
 O    3.752950966121    1.947210046707    0.000000000000
 C    3.061296652466    3.221139592169    0.000000000000
 H    3.872959243153    3.957884125761    0.000000000000
 H    2.440828351366    3.312089454423   -0.900440200117
 H    2.440828351366    3.312089454423    0.900440200117
 C    3.911834037171   -0.373142298658    0.000000000000
 H    3.331591644463   -1.298404633461    0.000000000000
 H    4.563249073231   -0.334830341360   -0.882661898533
 H    4.563249073231   -0.334830341360    0.882661898533
