23

 C   -4.660064292123    0.022395628777    0.000000000000
 C   -3.759934292123   -1.184754371223    0.000000000000
 O   -4.501174292123   -2.297954371223    0.000000000000
 C   -3.809524292123   -3.571884371223    0.000000000000
 O   -2.517744292123   -1.180244371223    0.000000000000
 H   -4.079824292123    0.947655628777    0.000000000000
 H   -5.311484292123   -0.015914371223    0.882660000000
 H   -5.311484292123   -0.015914371223   -0.882660000000
 H   -4.621184292123   -4.308634371223    0.000000000000
 H   -3.189054292123   -3.662834371223    0.900440000000
 H   -3.189054292123   -3.662834371223   -0.900440000000
RB    0.329235707877    0.154335628777    0.000000000000
 O    2.140139370895    1.003233692898    0.000000000000
 C    3.382341169323    1.007747680284    0.000000000000
 O    4.123584417368    2.120952043969    0.000000000000
 C    3.431930103713    3.394881589431    0.000000000000
 H    4.243592694400    4.131626123023    0.000000000000
 H    2.811461802613    3.485831451685   -0.900440200117
 H    2.811461802613    3.485831451685    0.900440200117
 C    4.282467488417   -0.199400301396    0.000000000000
 H    3.702225095710   -1.124662636199    0.000000000000
 H    4.933882524478   -0.161088344098   -0.882661898533
 H    4.933882524478   -0.161088344098    0.882661898533
