23

 C   -4.746383115952   -0.018068082210    0.000000000000
 C   -3.846253115952   -1.225218082210    0.000000000000
 O   -4.587493115952   -2.338418082210    0.000000000000
 C   -3.895843115952   -3.612348082210    0.000000000000
 O   -2.604063115952   -1.220708082210    0.000000000000
 H   -4.166143115952    0.907191917790    0.000000000000
 H   -5.397803115952   -0.056378082210    0.882660000000
 H   -5.397803115952   -0.056378082210   -0.882660000000
 H   -4.707503115952   -4.349098082210    0.000000000000
 H   -3.275373115952   -3.703298082210    0.900440000000
 H   -3.275373115952   -3.703298082210   -0.900440000000
RB    0.242916884048    0.113871917790    0.000000000000
 O    2.325456096518    1.090104691529    0.000000000000
 C    3.567657894946    1.094618678915    0.000000000000
 O    4.308901142992    2.207823042600    0.000000000000
 C    3.617246829336    3.481752588062    0.000000000000
 H    4.428909420023    4.218497121654    0.000000000000
 H    2.996778528236    3.572702450316   -0.900440200117
 H    2.996778528236    3.572702450316    0.900440200117
 C    4.467784214041   -0.112529302765    0.000000000000
 H    3.887541821333   -1.037791637568    0.000000000000
 H    5.119199250102   -0.074217345467   -0.882661898533
 H    5.119199250102   -0.074217345467    0.882661898533
