23

 C   -4.775156057229   -0.031555985872    0.000000000000
 C   -3.875026057229   -1.238705985872    0.000000000000
 O   -4.616266057229   -2.351905985872    0.000000000000
 C   -3.924616057229   -3.625835985872    0.000000000000
 O   -2.632836057229   -1.234195985872    0.000000000000
 H   -4.194916057229    0.893704014128    0.000000000000
 H   -5.426576057229   -0.069865985872    0.882660000000
 H   -5.426576057229   -0.069865985872   -0.882660000000
 H   -4.736276057229   -4.362585985872    0.000000000000
 H   -3.304146057229   -3.716785985872    0.900440000000
 H   -3.304146057229   -3.716785985872   -0.900440000000
RB    0.214143942771    0.100384014128    0.000000000000
 O    2.387228338393    1.119061691073    0.000000000000
 C    3.629430136821    1.123575678458    0.000000000000
 O    4.370673384866    2.236780042143    0.000000000000
 C    3.679019071210    3.510709587606    0.000000000000
 H    4.490681661898    4.247454121198    0.000000000000
 H    3.058550770111    3.601659449860   -0.900440200117
 H    3.058550770111    3.601659449860    0.900440200117
 C    4.529556455915   -0.083572303221    0.000000000000
 H    3.949314063207   -1.008834638024    0.000000000000
 H    5.180971491976   -0.045260345924   -0.882661898533
 H    5.180971491976   -0.045260345924    0.882661898533
