23

 C   -4.947793704887   -0.112483407847    0.000000000000
 C   -4.047663704887   -1.319633407847    0.000000000000
 O   -4.788903704887   -2.432833407847    0.000000000000
 C   -4.097253704887   -3.706763407847    0.000000000000
 O   -2.805473704887   -1.315123407847    0.000000000000
 H   -4.367553704887    0.812776592153    0.000000000000
 H   -5.599213704887   -0.150793407847    0.882660000000
 H   -5.599213704887   -0.150793407847   -0.882660000000
 H   -4.908913704887   -4.443513407847    0.000000000000
 H   -3.476783704887   -3.797713407847    0.900440000000
 H   -3.476783704887   -3.797713407847   -0.900440000000
RB    0.041506295113    0.019456592153    0.000000000000
 O    2.757861789640    1.292803688335    0.000000000000
 C    4.000063588068    1.297317675720    0.000000000000
 O    4.741306836113    2.410522039405    0.000000000000
 C    4.049652522457    3.684451584868    0.000000000000
 H    4.861315113145    4.421196118460    0.000000000000
 H    3.429184221358    3.775401447122   -0.900440200117
 H    3.429184221358    3.775401447122    0.900440200117
 C    4.900189907162    0.090169694041    0.000000000000
 H    4.319947514454   -0.835092640762    0.000000000000
 H    5.551604943223    0.128481651338   -0.882661898533
 H    5.551604943223    0.128481651338    0.882661898533
