23

 C   -5.034112528717   -0.152947118834    0.000000000000
 C   -4.133982528717   -1.360097118834    0.000000000000
 O   -4.875222528717   -2.473297118834    0.000000000000
 C   -4.183572528717   -3.747227118834    0.000000000000
 O   -2.891792528717   -1.355587118834    0.000000000000
 H   -4.453872528717    0.772312881166    0.000000000000
 H   -5.685532528717   -0.191257118834    0.882660000000
 H   -5.685532528717   -0.191257118834   -0.882660000000
 H   -4.995232528717   -4.483977118834    0.000000000000
 H   -3.563102528717   -3.838177118834    0.900440000000
 H   -3.563102528717   -3.838177118834   -0.900440000000
RB   -0.044812528717   -0.021007118834    0.000000000000
 O    2.943178515263    1.379674686966    0.000000000000
 C    4.185380313691    1.384188674351    0.000000000000
 O    4.926623561736    2.497393038036    0.000000000000
 C    4.234969248081    3.771322583499    0.000000000000
 H    5.046631838768    4.508067117091    0.000000000000
 H    3.614500946981    3.862272445753   -0.900440200117
 H    3.614500946981    3.862272445753    0.900440200117
 C    5.085506632786    0.177040692672    0.000000000000
 H    4.505264240078   -0.748221642131    0.000000000000
 H    5.736921668846    0.215352649969   -0.882661898533
 H    5.736921668846    0.215352649969    0.882661898533
