23

 C   -5.062885469993   -0.166435022496    0.000000000000
 C   -4.162755469993   -1.373585022496    0.000000000000
 O   -4.903995469993   -2.486785022496    0.000000000000
 C   -4.212345469993   -3.760715022496    0.000000000000
 O   -2.920565469993   -1.369075022496    0.000000000000
 H   -4.482645469993    0.758824977504    0.000000000000
 H   -5.714305469993   -0.204745022496    0.882660000000
 H   -5.714305469993   -0.204745022496   -0.882660000000
 H   -5.024005469993   -4.497465022496    0.000000000000
 H   -3.591875469993   -3.851665022496    0.900440000000
 H   -3.591875469993   -3.851665022496   -0.900440000000
RB   -0.073585469993   -0.034495022496    0.000000000000
 O    3.004950757137    1.408631686509    0.000000000000
 C    4.247152555566    1.413145673895    0.000000000000
 O    4.988395803611    2.526350037580    0.000000000000
 C    4.296741489955    3.800279583042    0.000000000000
 H    5.108404080643    4.537024116635    0.000000000000
 H    3.676273188856    3.891229445297   -0.900440200117
 H    3.676273188856    3.891229445297    0.900440200117
 C    5.147278874660    0.205997692215    0.000000000000
 H    4.567036481952   -0.719264642587    0.000000000000
 H    5.798693910721    0.244309649513   -0.882661898533
 H    5.798693910721    0.244309649513    0.882661898533
