23

 C   -5.091658411270   -0.179922926158    0.000000000000
 C   -4.191528411270   -1.387072926158    0.000000000000
 O   -4.932768411270   -2.500272926158    0.000000000000
 C   -4.241118411270   -3.774202926158    0.000000000000
 O   -2.949338411270   -1.382562926158    0.000000000000
 H   -4.511418411270    0.745337073842    0.000000000000
 H   -5.743078411270   -0.218232926158    0.882660000000
 H   -5.743078411270   -0.218232926158   -0.882660000000
 H   -5.052778411270   -4.510952926158    0.000000000000
 H   -3.620648411270   -3.865152926158    0.900440000000
 H   -3.620648411270   -3.865152926158   -0.900440000000
RB   -0.102358411270   -0.047982926158    0.000000000000
 O    3.066722999012    1.437588686053    0.000000000000
 C    4.308924797440    1.442102673439    0.000000000000
 O    5.050168045485    2.555307037124    0.000000000000
 C    4.358513731830    3.829236582586    0.000000000000
 H    5.170176322517    4.565981116178    0.000000000000
 H    3.738045430730    3.920186444840   -0.900440200117
 H    3.738045430730    3.920186444840    0.900440200117
 C    5.209051116535    0.234954691759    0.000000000000
 H    4.628808723827   -0.690307643044    0.000000000000
 H    5.860466152595    0.273266649057   -0.882661898533
 H    5.860466152595    0.273266649057    0.882661898533
