23

 C   -5.177977235099   -0.220386637146    0.000000000000
 C   -4.277847235099   -1.427536637146    0.000000000000
 O   -5.019087235099   -2.540736637146    0.000000000000
 C   -4.327437235099   -3.814666637146    0.000000000000
 O   -3.035657235099   -1.423026637146    0.000000000000
 H   -4.597737235099    0.704873362854    0.000000000000
 H   -5.829397235099   -0.258696637146    0.882660000000
 H   -5.829397235099   -0.258696637146   -0.882660000000
 H   -5.139097235099   -4.551416637146    0.000000000000
 H   -3.706967235099   -3.905616637146    0.900440000000
 H   -3.706967235099   -3.905616637146   -0.900440000000
RB   -0.188677235099   -0.088446637146    0.000000000000
 O    3.252039724635    1.524459684684    0.000000000000
 C    4.494241523063    1.528973672070    0.000000000000
 O    5.235484771109    2.642178035755    0.000000000000
 C    4.543830457453    3.916107581217    0.000000000000
 H    5.355493048141    4.652852114809    0.000000000000
 H    3.923362156354    4.007057443471   -0.900440200117
 H    3.923362156354    4.007057443471    0.900440200117
 C    5.394367842158    0.321825690390    0.000000000000
 H    4.814125449450   -0.603436644413    0.000000000000
 H    6.045782878219    0.360137647688   -0.882661898533
 H    6.045782878219    0.360137647688    0.882661898533
