23

 C   -5.206750176375   -0.233874540808    0.000000000000
 C   -4.306620176375   -1.441024540808    0.000000000000
 O   -5.047860176375   -2.554224540808    0.000000000000
 C   -4.356210176375   -3.828154540808    0.000000000000
 O   -3.064430176375   -1.436514540808    0.000000000000
 H   -4.626510176375    0.691385459192    0.000000000000
 H   -5.858170176375   -0.272184540808    0.882660000000
 H   -5.858170176375   -0.272184540808   -0.882660000000
 H   -5.167870176375   -4.564904540808    0.000000000000
 H   -3.735740176375   -3.919104540808    0.900440000000
 H   -3.735740176375   -3.919104540808   -0.900440000000
RB   -0.217450176375   -0.101934540808    0.000000000000
 O    3.313811966510    1.553416684228    0.000000000000
 C    4.556013764938    1.557930671613    0.000000000000
 O    5.297257012983    2.671135035298    0.000000000000
 C    4.605602699328    3.945064580761    0.000000000000
 H    5.417265290015    4.681809114353    0.000000000000
 H    3.985134398228    4.036014443015   -0.900440200117
 H    3.985134398228    4.036014443015    0.900440200117
 C    5.456140084032    0.350782689934    0.000000000000
 H    4.875897691324   -0.574479644869    0.000000000000
 H    6.107555120093    0.389094647231   -0.882661898533
 H    6.107555120093    0.389094647231    0.882661898533
