23

 C   -5.350614882757   -0.301314059120    0.000000000000
 C   -4.450484882757   -1.508464059120    0.000000000000
 O   -5.191724882757   -2.621664059120    0.000000000000
 C   -4.500074882757   -3.895594059120    0.000000000000
 O   -3.208294882757   -1.503954059120    0.000000000000
 H   -4.770374882757    0.623945940880    0.000000000000
 H   -6.002034882757   -0.339624059120    0.882660000000
 H   -6.002034882757   -0.339624059120   -0.882660000000
 H   -5.311734882757   -4.632344059120    0.000000000000
 H   -3.879604882757   -3.986544059120    0.900440000000
 H   -3.879604882757   -3.986544059120   -0.900440000000
RB   -0.361314882757   -0.169374059120    0.000000000000
 O    3.622673175882    1.698201681946    0.000000000000
 C    4.864874974310    1.702715669332    0.000000000000
 O    5.606118222355    2.815920033017    0.000000000000
 C    4.914463908700    4.089849578479    0.000000000000
 H    5.726126499387    4.826594112071    0.000000000000
 H    4.293995607600    4.180799440734   -0.900440200117
 H    4.293995607600    4.180799440734    0.900440200117
 C    5.765001293405    0.495567687652    0.000000000000
 H    5.184758900697   -0.429694647151    0.000000000000
 H    6.416416329465    0.533879644950   -0.882661898533
 H    6.416416329465    0.533879644950    0.882661898533
