23

 C   -5.436933706587   -0.341777770107    0.000000000000
 C   -4.536803706587   -1.548927770107    0.000000000000
 O   -5.278043706587   -2.662127770107    0.000000000000
 C   -4.586393706587   -3.936057770107    0.000000000000
 O   -3.294613706587   -1.544417770107    0.000000000000
 H   -4.856693706587    0.583482229893    0.000000000000
 H   -6.088353706587   -0.380087770107    0.882660000000
 H   -6.088353706587   -0.380087770107   -0.882660000000
 H   -5.398053706587   -4.672807770107    0.000000000000
 H   -3.965923706587   -4.027007770107    0.900440000000
 H   -3.965923706587   -4.027007770107   -0.900440000000
RB   -0.447633706587   -0.209837770107    0.000000000000
 O    3.807989901506    1.785072680577    0.000000000000
 C    5.050191699934    1.789586667963    0.000000000000
 O    5.791434947979    2.902791031648    0.000000000000
 C    5.099780634323    4.176720577110    0.000000000000
 H    5.911443225011    4.913465110703    0.000000000000
 H    4.479312333224    4.267670439365   -0.900440200117
 H    4.479312333224    4.267670439365    0.900440200117
 C    5.950318019028    0.582438686283    0.000000000000
 H    5.370075626320   -0.342823648520    0.000000000000
 H    6.601733055089    0.620750643581   -0.882661898533
 H    6.601733055089    0.620750643581    0.882661898533
