23

 C   -5.465706647863   -0.355265673769    0.000000000000
 C   -4.565576647863   -1.562415673769    0.000000000000
 O   -5.306816647863   -2.675615673769    0.000000000000
 C   -4.615166647863   -3.949545673769    0.000000000000
 O   -3.323386647863   -1.557905673769    0.000000000000
 H   -4.885466647863    0.569994326231    0.000000000000
 H   -6.117126647863   -0.393575673769    0.882660000000
 H   -6.117126647863   -0.393575673769   -0.882660000000
 H   -5.426826647863   -4.686295673769    0.000000000000
 H   -3.994696647863   -4.040495673769    0.900440000000
 H   -3.994696647863   -4.040495673769   -0.900440000000
RB   -0.476406647863   -0.223325673769    0.000000000000
 O    3.869762143380    1.814029680121    0.000000000000
 C    5.111963941808    1.818543667506    0.000000000000
 O    5.853207189853    2.931748031191    0.000000000000
 C    5.161552876198    4.205677576654    0.000000000000
 H    5.973215466885    4.942422110246    0.000000000000
 H    4.541084575098    4.296627438908   -0.900440200117
 H    4.541084575098    4.296627438908    0.900440200117
 C    6.012090260903    0.611395685827    0.000000000000
 H    5.431847868195   -0.313866648976    0.000000000000
 H    6.663505296963    0.649707643124   -0.882661898533
 H    6.663505296963    0.649707643124    0.882661898533
