23

 C   -5.580798412969   -0.409217288419    0.000000000000
 C   -4.680668412969   -1.616367288419    0.000000000000
 O   -5.421908412969   -2.729567288419    0.000000000000
 C   -4.730258412969   -4.003497288419    0.000000000000
 O   -3.438478412969   -1.611857288419    0.000000000000
 H   -5.000558412969    0.516042711581    0.000000000000
 H   -6.232218412969   -0.447527288419    0.882660000000
 H   -6.232218412969   -0.447527288419   -0.882660000000
 H   -5.541918412969   -4.740247288419    0.000000000000
 H   -4.109788412969   -4.094447288419    0.900440000000
 H   -4.109788412969   -4.094447288419   -0.900440000000
RB   -0.591498412969   -0.277277288419    0.000000000000
 O    4.116851110878    1.929857678295    0.000000000000
 C    5.359052909306    1.934371665681    0.000000000000
 O    6.100296157351    3.047576029366    0.000000000000
 C    5.408641843696    4.321505574828    0.000000000000
 H    6.220304434383    5.058250108421    0.000000000000
 H    4.788173542596    4.412455437083   -0.900440200117
 H    4.788173542596    4.412455437083    0.900440200117
 C    6.259179228401    0.727223684001    0.000000000000
 H    5.678936835693   -0.198038650801    0.000000000000
 H    6.910594264461    0.765535641299   -0.882661898533
 H    6.910594264461    0.765535641299    0.882661898533
