23

 C   -5.638344295522   -0.436193095743    0.000000000000
 C   -4.738214295522   -1.643343095743    0.000000000000
 O   -5.479454295522   -2.756543095743    0.000000000000
 C   -4.787804295522   -4.030473095743    0.000000000000
 O   -3.496024295522   -1.638833095743    0.000000000000
 H   -5.058104295522    0.489066904257    0.000000000000
 H   -6.289764295522   -0.474503095743    0.882660000000
 H   -6.289764295522   -0.474503095743   -0.882660000000
 H   -5.599464295522   -4.767223095743    0.000000000000
 H   -4.167334295522   -4.121423095743    0.900440000000
 H   -4.167334295522   -4.121423095743   -0.900440000000
RB   -0.649044295522   -0.304253095743    0.000000000000
 O    4.240395594627    1.987771677383    0.000000000000
 C    5.482597393055    1.992285664768    0.000000000000
 O    6.223840641100    3.105490028453    0.000000000000
 C    5.532186327445    4.379419573916    0.000000000000
 H    6.343848918132    5.116164107508    0.000000000000
 H    4.911718026345    4.470369436170   -0.900440200117
 H    4.911718026345    4.470369436170    0.900440200117
 C    6.382723712150    0.785137683089    0.000000000000
 H    5.802481319442   -0.140124651714    0.000000000000
 H    7.034138748210    0.823449640386   -0.882661898533
 H    7.034138748210    0.823449640386    0.882661898533
