23

 C   -5.782209001904   -0.503632614055    0.000000000000
 C   -4.882079001904   -1.710782614055    0.000000000000
 O   -5.623319001904   -2.823982614055    0.000000000000
 C   -4.931669001904   -4.097912614055    0.000000000000
 O   -3.639889001904   -1.706272614055    0.000000000000
 H   -5.201969001904    0.421627385945    0.000000000000
 H   -6.433629001904   -0.541942614055    0.882660000000
 H   -6.433629001904   -0.541942614055   -0.882660000000
 H   -5.743329001904   -4.834662614055    0.000000000000
 H   -4.311199001904   -4.188862614055    0.900440000000
 H   -4.311199001904   -4.188862614055   -0.900440000000
RB   -0.792909001904   -0.371692614055    0.000000000000
 O    4.549256803999    2.132556675101    0.000000000000
 C    5.791458602427    2.137070662487    0.000000000000
 O    6.532701850473    3.250275026172    0.000000000000
 C    5.841047536817    4.524204571634    0.000000000000
 H    6.652710127504    5.260949105227    0.000000000000
 H    5.220579235717    4.615154433889   -0.900440200117
 H    5.220579235717    4.615154433889    0.900440200117
 C    6.691584921522    0.929922680807    0.000000000000
 H    6.111342528814    0.004660346004    0.000000000000
 H    7.342999957583    0.968234638105   -0.882661898533
 H    7.342999957583    0.968234638105    0.882661898533
