23

 C   -5.839754884457   -0.530608421380    0.000000000000
 C   -4.939624884457   -1.737758421380    0.000000000000
 O   -5.680864884457   -2.850958421380    0.000000000000
 C   -4.989214884457   -4.124888421380    0.000000000000
 O   -3.697434884457   -1.733248421380    0.000000000000
 H   -5.259514884457    0.394651578620    0.000000000000
 H   -6.491174884457   -0.568918421380    0.882660000000
 H   -6.491174884457   -0.568918421380   -0.882660000000
 H   -5.800874884457   -4.861638421380    0.000000000000
 H   -4.368744884457   -4.215838421380    0.900440000000
 H   -4.368744884457   -4.215838421380   -0.900440000000
RB   -0.850454884457   -0.398668421380    0.000000000000
 O    4.672801287748    2.190470674188    0.000000000000
 C    5.915003086176    2.194984661574    0.000000000000
 O    6.656246334221    3.308189025259    0.000000000000
 C    5.964592020566    4.582118570721    0.000000000000
 H    6.776254611253    5.318863104314    0.000000000000
 H    5.344123719466    4.673068432976   -0.900440200117
 H    5.344123719466    4.673068432976    0.900440200117
 C    6.815129405271    0.987836679894    0.000000000000
 H    6.234887012563    0.062574345092    0.000000000000
 H    7.466544441331    1.026148637192   -0.882661898533
 H    7.466544441331    1.026148637192    0.882661898533
