23

 C   -5.926073708286   -0.571072132367    0.000000000000
 C   -5.025943708286   -1.778222132367    0.000000000000
 O   -5.767183708286   -2.891422132367    0.000000000000
 C   -5.075533708286   -4.165352132367    0.000000000000
 O   -3.783753708286   -1.773712132367    0.000000000000
 H   -5.345833708286    0.354187867633    0.000000000000
 H   -6.577493708286   -0.609382132367    0.882660000000
 H   -6.577493708286   -0.609382132367   -0.882660000000
 H   -5.887193708286   -4.902102132367    0.000000000000
 H   -4.455063708286   -4.256302132367    0.900440000000
 H   -4.455063708286   -4.256302132367   -0.900440000000
RB   -0.936773708286   -0.439132132367    0.000000000000
 O    4.858118013372    2.277341672819    0.000000000000
 C    6.100319811800    2.281855660205    0.000000000000
 O    6.841563059845    3.395060023890    0.000000000000
 C    6.149908746189    4.668989569352    0.000000000000
 H    6.961571336877    5.405734102945    0.000000000000
 H    5.529440445090    4.759939431607   -0.900440200117
 H    5.529440445090    4.759939431607    0.900440200117
 C    7.000446130894    1.074707678525    0.000000000000
 H    6.420203738186    0.149445343723    0.000000000000
 H    7.651861166955    1.113019635823   -0.882661898533
 H    7.651861166955    1.113019635823    0.882661898533
