23

 C   -5.954846649562   -0.584560036030    0.000000000000
 C   -5.054716649562   -1.791710036030    0.000000000000
 O   -5.795956649562   -2.904910036030    0.000000000000
 C   -5.104306649562   -4.178840036030    0.000000000000
 O   -3.812526649562   -1.787200036030    0.000000000000
 H   -5.374606649562    0.340699963970    0.000000000000
 H   -6.606266649562   -0.622870036030    0.882660000000
 H   -6.606266649562   -0.622870036030   -0.882660000000
 H   -5.915966649562   -4.915590036030    0.000000000000
 H   -4.483836649562   -4.269790036030    0.900440000000
 H   -4.483836649562   -4.269790036030   -0.900440000000
RB   -0.965546649562   -0.452620036030    0.000000000000
 O    4.919890255246    2.306298672363    0.000000000000
 C    6.162092053674    2.310812659749    0.000000000000
 O    6.903335301719    3.424017023434    0.000000000000
 C    6.211680988064    4.697946568896    0.000000000000
 H    7.023343578751    5.434691102489    0.000000000000
 H    5.591212686964    4.788896431151   -0.900440200117
 H    5.591212686964    4.788896431151    0.900440200117
 C    7.062218372769    1.103664678069    0.000000000000
 H    6.481975980061    0.178402343266    0.000000000000
 H    7.713633408829    1.141976635367   -0.882661898533
 H    7.713633408829    1.141976635367    0.882661898533
