23

 C   -6.041165473392   -0.625023747017    0.000000000000
 C   -5.141035473392   -1.832173747017    0.000000000000
 O   -5.882275473392   -2.945373747017    0.000000000000
 C   -5.190625473392   -4.219303747017    0.000000000000
 O   -3.898845473392   -1.827663747017    0.000000000000
 H   -5.460925473392    0.300236252983    0.000000000000
 H   -6.692585473392   -0.663333747017    0.882660000000
 H   -6.692585473392   -0.663333747017   -0.882660000000
 H   -6.002285473392   -4.956053747017    0.000000000000
 H   -4.570155473392   -4.310253747017    0.900440000000
 H   -4.570155473392   -4.310253747017   -0.900440000000
RB   -1.051865473392   -0.493083747017    0.000000000000
 O    5.105206980870    2.393169670994    0.000000000000
 C    6.347408779298    2.397683658380    0.000000000000
 O    7.088652027343    3.510888022065    0.000000000000
 C    6.396997713687    4.784817567527    0.000000000000
 H    7.208660304375    5.521562101120    0.000000000000
 H    5.776529412588    4.875767429782   -0.900440200117
 H    5.776529412588    4.875767429782    0.900440200117
 C    7.247535098392    1.190535676700    0.000000000000
 H    6.667292705684    0.265273341897    0.000000000000
 H    7.898950134453    1.228847633998   -0.882661898533
 H    7.898950134453    1.228847633998    0.882661898533
