23

 C   -6.242576062327   -0.719439072653    0.000000000000
 C   -5.342446062327   -1.926589072653    0.000000000000
 O   -6.083686062327   -3.039789072653    0.000000000000
 C   -5.392036062327   -4.313719072653    0.000000000000
 O   -4.100256062327   -1.922079072653    0.000000000000
 H   -5.662336062327    0.205820927347    0.000000000000
 H   -6.893996062327   -0.757749072653    0.882660000000
 H   -6.893996062327   -0.757749072653   -0.882660000000
 H   -6.203696062327   -5.050469072653    0.000000000000
 H   -4.771566062327   -4.404669072653    0.900440000000
 H   -4.771566062327   -4.404669072653   -0.900440000000
RB   -1.253276062327   -0.587499072653    0.000000000000
 O    5.537612673991    2.595868667800    0.000000000000
 C    6.779814472419    2.600382655185    0.000000000000
 O    7.521057720464    3.713587018870    0.000000000000
 C    6.829403406809    4.987516564333    0.000000000000
 H    7.641065997496    5.724261097925    0.000000000000
 H    6.208935105709    5.078466426587   -0.900440200117
 H    6.208935105709    5.078466426587    0.900440200117
 C    7.679940791513    1.393234673506    0.000000000000
 H    7.099698398805    0.467972338703    0.000000000000
 H    8.331355827574    1.431546630804   -0.882661898533
 H    8.331355827574    1.431546630804    0.882661898533
