23

 C   -6.300121944879   -0.746414879978    0.000000000000
 C   -5.399991944879   -1.953564879978    0.000000000000
 O   -6.141231944879   -3.066764879978    0.000000000000
 C   -5.449581944879   -4.340694879978    0.000000000000
 O   -4.157801944879   -1.949054879978    0.000000000000
 H   -5.719881944879    0.178845120022    0.000000000000
 H   -6.951541944879   -0.784724879978    0.882660000000
 H   -6.951541944879   -0.784724879978   -0.882660000000
 H   -6.261241944879   -5.077444879978    0.000000000000
 H   -4.829111944879   -4.431644879978    0.900440000000
 H   -4.829111944879   -4.431644879978   -0.900440000000
RB   -1.310821944879   -0.614474879978    0.000000000000
 O    5.661157157740    2.653782666887    0.000000000000
 C    6.903358956168    2.658296654273    0.000000000000
 O    7.644602204213    3.771501017958    0.000000000000
 C    6.952947890557    5.045430563420    0.000000000000
 H    7.764610481245    5.782175097013    0.000000000000
 H    6.332479589458    5.136380425675   -0.900440200117
 H    6.332479589458    5.136380425675    0.900440200117
 C    7.803485275262    1.451148672593    0.000000000000
 H    7.223242882554    0.525886337790    0.000000000000
 H    8.454900311323    1.489460629891   -0.882661898533
 H    8.454900311323    1.489460629891    0.882661898533
