23

 C   -6.328894886156   -0.759902783640    0.000000000000
 C   -5.428764886156   -1.967052783640    0.000000000000
 O   -6.170004886156   -3.080252783640    0.000000000000
 C   -5.478354886156   -4.354182783640    0.000000000000
 O   -4.186574886156   -1.962542783640    0.000000000000
 H   -5.748654886156    0.165357216360    0.000000000000
 H   -6.980314886156   -0.798212783640    0.882660000000
 H   -6.980314886156   -0.798212783640   -0.882660000000
 H   -6.290014886156   -5.090932783640    0.000000000000
 H   -4.857884886156   -4.445132783640    0.900440000000
 H   -4.857884886156   -4.445132783640   -0.900440000000
RB   -1.339594886156   -0.627962783640    0.000000000000
 O    5.722929399614    2.682739666431    0.000000000000
 C    6.965131198042    2.687253653816    0.000000000000
 O    7.706374446088    3.800458017501    0.000000000000
 C    7.014720132432    5.074387562964    0.000000000000
 H    7.826382723119    5.811132096556    0.000000000000
 H    6.394251831332    5.165337425218   -0.900440200117
 H    6.394251831332    5.165337425218    0.900440200117
 C    7.865257517137    1.480105672137    0.000000000000
 H    7.285015124429    0.554843337334    0.000000000000
 H    8.516672553198    1.518417629435   -0.882661898533
 H    8.516672553198    1.518417629435    0.882661898533
