23

 C   -6.472759592538   -0.827342301952    0.000000000000
 C   -5.572629592538   -2.034492301952    0.000000000000
 O   -6.313869592538   -3.147692301952    0.000000000000
 C   -5.622219592538   -4.421622301952    0.000000000000
 O   -4.330439592538   -2.029982301952    0.000000000000
 H   -5.892519592538    0.097917698048    0.000000000000
 H   -7.124179592538   -0.865652301952    0.882660000000
 H   -7.124179592538   -0.865652301952   -0.882660000000
 H   -6.433879592538   -5.158372301952    0.000000000000
 H   -5.001749592538   -4.512572301952    0.900440000000
 H   -5.001749592538   -4.512572301952   -0.900440000000
RB   -1.483459592538   -0.695402301952    0.000000000000
 O    6.031790608987    2.827524664149    0.000000000000
 C    7.273992407415    2.832038651535    0.000000000000
 O    8.015235655460    3.945243015220    0.000000000000
 C    7.323581341804    5.219172560682    0.000000000000
 H    8.135243932492    5.955917094275    0.000000000000
 H    6.703113040705    5.310122422937   -0.900440200117
 H    6.703113040705    5.310122422937    0.900440200117
 C    8.174118726509    1.624890669855    0.000000000000
 H    7.593876333801    0.699628335052    0.000000000000
 H    8.825533762570    1.663202627153   -0.882661898533
 H    8.825533762570    1.663202627153    0.882661898533
