23

 C   -6.530305475091   -0.854318109277    0.000000000000
 C   -5.630175475091   -2.061468109277    0.000000000000
 O   -6.371415475091   -3.174668109277    0.000000000000
 C   -5.679765475091   -4.448598109277    0.000000000000
 O   -4.387985475091   -2.056958109277    0.000000000000
 H   -5.950065475091    0.070941890723    0.000000000000
 H   -7.181725475091   -0.892628109277    0.882660000000
 H   -7.181725475091   -0.892628109277   -0.882660000000
 H   -6.491425475091   -5.185348109277    0.000000000000
 H   -5.059295475091   -4.539548109277    0.900440000000
 H   -5.059295475091   -4.539548109277   -0.900440000000
RB   -1.541005475091   -0.722378109277    0.000000000000
 O    6.155335092736    2.885438663236    0.000000000000
 C    7.397536891164    2.889952650622    0.000000000000
 O    8.138780139209    4.003157014307    0.000000000000
 C    7.447125825553    5.277086559769    0.000000000000
 H    8.258788416241    6.013831093362    0.000000000000
 H    6.826657524454    5.368036422024   -0.900440200117
 H    6.826657524454    5.368036422024    0.900440200117
 C    8.297663210258    1.682804668942    0.000000000000
 H    7.717420817550    0.757542334140    0.000000000000
 H    8.949078246319    1.721116626240   -0.882661898533
 H    8.949078246319    1.721116626240    0.882661898533
