23

 C   -6.616624298920   -0.894781820264    0.000000000000
 C   -5.716494298920   -2.101931820264    0.000000000000
 O   -6.457734298920   -3.215131820264    0.000000000000
 C   -5.766084298920   -4.489061820264    0.000000000000
 O   -4.474304298920   -2.097421820264    0.000000000000
 H   -6.036384298920    0.030478179736    0.000000000000
 H   -7.268044298920   -0.933091820264    0.882660000000
 H   -7.268044298920   -0.933091820264   -0.882660000000
 H   -6.577744298920   -5.225811820264    0.000000000000
 H   -5.145614298920   -4.580011820264    0.900440000000
 H   -5.145614298920   -4.580011820264   -0.900440000000
RB   -1.627324298920   -0.762841820264    0.000000000000
 O    6.340651818359    2.972309661867    0.000000000000
 C    7.582853616787    2.976823649253    0.000000000000
 O    8.324096864832    4.090028012938    0.000000000000
 C    7.632442551177    5.363957558400    0.000000000000
 H    8.444105141864    6.100702091993    0.000000000000
 H    7.011974250077    5.454907420655   -0.900440200117
 H    7.011974250077    5.454907420655    0.900440200117
 C    8.482979935882    1.769675667573    0.000000000000
 H    7.902737543174    0.844413332771    0.000000000000
 H    9.134394971942    1.807987624871   -0.882661898533
 H    9.134394971942    1.807987624871    0.882661898533
