23

 C   -6.875580770408   -1.016172953225    0.000000000000
 C   -5.975450770408   -2.223322953225    0.000000000000
 O   -6.716690770408   -3.336522953225    0.000000000000
 C   -6.025040770408   -4.610452953225    0.000000000000
 O   -4.733260770408   -2.218812953225    0.000000000000
 H   -6.295340770408   -0.090912953225    0.000000000000
 H   -7.527000770408   -1.054482953225    0.882660000000
 H   -7.527000770408   -1.054482953225   -0.882660000000
 H   -6.836700770408   -5.347202953225    0.000000000000
 H   -5.404570770408   -4.701402953225    0.900440000000
 H   -5.404570770408   -4.701402953225   -0.900440000000
RB   -1.886280770408   -0.884232953225    0.000000000000
 O    6.896601995229    3.232922657760    0.000000000000
 C    8.138803793657    3.237436645146    0.000000000000
 O    8.880047041702    4.350641008831    0.000000000000
 C    8.188392728047    5.624570554293    0.000000000000
 H    9.000055318734    6.361315087886    0.000000000000
 H    7.567924426947    5.715520416548   -0.900440200117
 H    7.567924426947    5.715520416548    0.900440200117
 C    9.038930112752    2.030288663466    0.000000000000
 H    8.458687720044    1.105026328664    0.000000000000
 H    9.690345148812    2.068600620764   -0.882661898533
 H    9.690345148812    2.068600620764    0.882661898533
