13

 C    1.546075253545    1.271985918849    0.626110352033
 H    1.079455253545    2.264152918849    0.626110352033
 H    2.183224253545    1.167568918849    1.518616352033
 H    2.183224253545    1.167568918849   -0.266395647967
 C    0.447900253545    0.220900918849    0.626110352033
 O   -0.758262746455    0.498954918849    0.626110352033
 N    0.878829253545   -1.079248081151    0.626110352033
 H    1.871006253545   -1.273149081151    0.626110352033
 C   -0.079505746455   -2.177776081151    0.626110352033
 H   -0.723570746455   -2.129297081151    1.516818352033
 H   -0.723570746455   -2.129297081151   -0.264597647967
 H    0.473720253545   -3.126201081151    0.626110352033
 K   -0.758262746455    0.498954918849   -1.173889647967
