13

 C    1.546075253545    1.271985918849    1.113085070280
 H    1.079455253545    2.264152918849    1.113085070280
 H    2.183224253545    1.167568918849    2.005591070280
 H    2.183224253545    1.167568918849    0.220579070280
 C    0.447900253545    0.220900918849    1.113085070280
 O   -0.758262746455    0.498954918849    1.113085070280
 N    0.878829253545   -1.079248081151    1.113085070280
 H    1.871006253545   -1.273149081151    1.113085070280
 C   -0.079505746455   -2.177776081151    1.113085070280
 H   -0.723570746455   -2.129297081151    2.003793070280
 H   -0.723570746455   -2.129297081151    0.222377070280
 H    0.473720253545   -3.126201081151    1.113085070280
 K   -0.758262746455    0.498954918849   -2.086914929720
