13

 C    1.546075253545    1.271985918849    1.704411513866
 H    1.079455253545    2.264152918849    1.704411513866
 H    2.183224253545    1.167568918849    2.596917513866
 H    2.183224253545    1.167568918849    0.811905513866
 C    0.447900253545    0.220900918849    1.704411513866
 O   -0.758262746455    0.498954918849    1.704411513866
 N    0.878829253545   -1.079248081151    1.704411513866
 H    1.871006253545   -1.273149081151    1.704411513866
 C   -0.079505746455   -2.177776081151    1.704411513866
 H   -0.723570746455   -2.129297081151    2.595119513866
 H   -0.723570746455   -2.129297081151    0.813703513866
 H    0.473720253545   -3.126201081151    1.704411513866
 K   -0.758262746455    0.498954918849   -3.195588486134
