13

 C    1.546075253545    1.271985918849    1.843547147651
 H    1.079455253545    2.264152918849    1.843547147651
 H    2.183224253545    1.167568918849    2.736053147651
 H    2.183224253545    1.167568918849    0.951041147651
 C    0.447900253545    0.220900918849    1.843547147651
 O   -0.758262746455    0.498954918849    1.843547147651
 N    0.878829253545   -1.079248081151    1.843547147651
 H    1.871006253545   -1.273149081151    1.843547147651
 C   -0.079505746455   -2.177776081151    1.843547147651
 H   -0.723570746455   -2.129297081151    2.734255147651
 H   -0.723570746455   -2.129297081151    0.952839147651
 H    0.473720253545   -3.126201081151    1.843547147651
 K   -0.758262746455    0.498954918849   -3.456452852349
