13

 C    1.546075253545    1.271985918849    2.121818415221
 H    1.079455253545    2.264152918849    2.121818415221
 H    2.183224253545    1.167568918849    3.014324415221
 H    2.183224253545    1.167568918849    1.229312415221
 C    0.447900253545    0.220900918849    2.121818415221
 O   -0.758262746455    0.498954918849    2.121818415221
 N    0.878829253545   -1.079248081151    2.121818415221
 H    1.871006253545   -1.273149081151    2.121818415221
 C   -0.079505746455   -2.177776081151    2.121818415221
 H   -0.723570746455   -2.129297081151    3.012526415221
 H   -0.723570746455   -2.129297081151    1.231110415221
 H    0.473720253545   -3.126201081151    2.121818415221
 K   -0.758262746455    0.498954918849   -3.978181584779
