13

 C    1.546075253545    1.271985918849    2.365305774345
 H    1.079455253545    2.264152918849    2.365305774345
 H    2.183224253545    1.167568918849    3.257811774345
 H    2.183224253545    1.167568918849    1.472799774345
 C    0.447900253545    0.220900918849    2.365305774345
 O   -0.758262746455    0.498954918849    2.365305774345
 N    0.878829253545   -1.079248081151    2.365305774345
 H    1.871006253545   -1.273149081151    2.365305774345
 C   -0.079505746455   -2.177776081151    2.365305774345
 H   -0.723570746455   -2.129297081151    3.256013774345
 H   -0.723570746455   -2.129297081151    1.474597774345
 H    0.473720253545   -3.126201081151    2.365305774345
 K   -0.758262746455    0.498954918849   -4.434694225655
