13

 C    1.546075253545    1.271985918849    2.782712675700
 H    1.079455253545    2.264152918849    2.782712675700
 H    2.183224253545    1.167568918849    3.675218675700
 H    2.183224253545    1.167568918849    1.890206675700
 C    0.447900253545    0.220900918849    2.782712675700
 O   -0.758262746455    0.498954918849    2.782712675700
 N    0.878829253545   -1.079248081151    2.782712675700
 H    1.871006253545   -1.273149081151    2.782712675700
 C   -0.079505746455   -2.177776081151    2.782712675700
 H   -0.723570746455   -2.129297081151    3.673420675700
 H   -0.723570746455   -2.129297081151    1.892004675700
 H    0.473720253545   -3.126201081151    2.782712675700
 K   -0.758262746455    0.498954918849   -5.217287324300
