13

 C    1.546075253545    1.271985918849    3.060983943270
 H    1.079455253545    2.264152918849    3.060983943270
 H    2.183224253545    1.167568918849    3.953489943270
 H    2.183224253545    1.167568918849    2.168477943270
 C    0.447900253545    0.220900918849    3.060983943270
 O   -0.758262746455    0.498954918849    3.060983943270
 N    0.878829253545   -1.079248081151    3.060983943270
 H    1.871006253545   -1.273149081151    3.060983943270
 C   -0.079505746455   -2.177776081151    3.060983943270
 H   -0.723570746455   -2.129297081151    3.951691943270
 H   -0.723570746455   -2.129297081151    2.170275943270
 H    0.473720253545   -3.126201081151    3.060983943270
 K   -0.758262746455    0.498954918849   -5.739016056730
