13

 C    1.546075253545    1.271985918849    3.234903485501
 H    1.079455253545    2.264152918849    3.234903485501
 H    2.183224253545    1.167568918849    4.127409485501
 H    2.183224253545    1.167568918849    2.342397485501
 C    0.447900253545    0.220900918849    3.234903485501
 O   -0.758262746455    0.498954918849    3.234903485501
 N    0.878829253545   -1.079248081151    3.234903485501
 H    1.871006253545   -1.273149081151    3.234903485501
 C   -0.079505746455   -2.177776081151    3.234903485501
 H   -0.723570746455   -2.129297081151    4.125611485501
 H   -0.723570746455   -2.129297081151    2.344195485501
 H    0.473720253545   -3.126201081151    3.234903485501
 K   -0.758262746455    0.498954918849   -6.065096514499
