14

 N    1.281342202457    1.315389494857   -0.004176476086
 C    0.195895259554    2.138148464685   -0.001034604865
 H    0.387416099436    3.213205437184   -0.003539203407
 C    1.199478481775   -0.103880966869   -0.003158807202
 O    2.243221729093   -0.757122856930   -0.005639648514
 N   -0.074359606906   -0.646020598462    0.007454426928
 C   -1.132045719719    0.155331432413    0.004961382100
 N   -2.364038836175   -0.448467596667   -0.040444441109
 H   -2.372973304496   -1.448161483178    0.129126167456
 H   -3.182616580378    0.077960722733    0.234455683688
 C   -1.063463721285    1.596708271608    0.001477948434
 H   -1.951987436970    2.228025862852   -0.008004005593
 H    2.225282325384    1.690037707299   -0.007482372314
NA   -0.223707594607   -1.836687288608    0.010284894638
