14

 N    1.285611642302    1.349427314090   -0.004257391215
 C    0.200164699399    2.172186283918   -0.001115519994
 H    0.391685539281    3.247243256417   -0.003620118536
 C    1.203747921620   -0.069843147636   -0.003239722331
 O    2.247491168938   -0.723085037697   -0.005720563643
 N   -0.070090167061   -0.611982779229    0.007373511799
 C   -1.127776279874    0.189369251646    0.004880466971
 N   -2.359769396330   -0.414429777434   -0.040525356238
 H   -2.368703864651   -1.414123663945    0.129045252327
 H   -3.178347140533    0.111998541966    0.234374768559
 C   -1.059194281440    1.630746090841    0.001397033305
 H   -1.947717997125    2.262063682085   -0.008084920722
 H    2.229551765229    1.724075526532   -0.007563287443
NA   -0.244329486047   -2.001093917732    0.010675724128
