14

 N    1.294150521990    1.417502952556   -0.004419221472
 C    0.208703579087    2.240261922384   -0.001277350251
 H    0.400224418969    3.315318894883   -0.003781948793
 C    1.212286801308   -0.001767509170   -0.003401552588
 O    2.256030048626   -0.655009399231   -0.005882393900
 N   -0.061551287373   -0.543907140763    0.007211681542
 C   -1.119237400186    0.257444890112    0.004718636714
 N   -2.351230516642   -0.346354138968   -0.040687186495
 H   -2.360164984963   -1.346048025479    0.128883422070
 H   -3.169808260845    0.180074180432    0.234212938302
 C   -1.050655401752    1.698821729307    0.001235203048
 H   -1.939179117437    2.330139320551   -0.008246750979
 H    2.238090644917    1.792151164998   -0.007725117700
NA   -0.285573268925   -2.329907175981    0.011457383108
