14

 N    1.300554681757    1.468559681406   -0.004540594165
 C    0.215107738854    2.291318651234   -0.001398722944
 H    0.406628578736    3.366375623733   -0.003903321486
 C    1.218690961075    0.049289219680   -0.003522925281
 O    2.262434208393   -0.603952670381   -0.006003766593
 N   -0.055147127606   -0.492850411913    0.007090308849
 C   -1.112833240419    0.308501618962    0.004597264021
 N   -2.344826356875   -0.295297410118   -0.040808559188
 H   -2.353760825196   -1.294991296629    0.128762049377
 H   -3.163404101078    0.231130909282    0.234091565609
 C   -1.044251241985    1.749878458157    0.001113830355
 H   -1.932774957670    2.381196049401   -0.008368123672
 H    2.244494804684    1.843207893848   -0.007846490393
NA   -0.316506106084   -2.576517119668    0.012043627343
