14

 N    1.317632441134    1.604710958338   -0.004864254679
 C    0.232185498231    2.427469928166   -0.001722383458
 H    0.423706338113    3.502526900665   -0.004226982000
 C    1.235768720452    0.185440496612   -0.003846585795
 O    2.279511967770   -0.467801393449   -0.006327427107
 N   -0.038069368229   -0.356699134981    0.006766648335
 C   -1.095755481042    0.444652895894    0.004273603507
 N   -2.327748597498   -0.159146133186   -0.041132219702
 H   -2.336683065819   -1.158840019697    0.128438388863
 H   -3.146326341701    0.367282186214    0.233767905095
 C   -1.027173482608    1.886029735089    0.000790169841
 H   -1.915697198293    2.517347326333   -0.008691784186
 H    2.261572564061    1.979359170780   -0.008170150907
NA   -0.398993671841   -3.234143636165    0.013606945302
