14

 N    1.324036600901    1.655767687188   -0.004985627371
 C    0.238589657998    2.478526657016   -0.001843756150
 H    0.430110497880    3.553583629515   -0.004348354692
 C    1.242172880219    0.236497225462   -0.003967958487
 O    2.285916127537   -0.416744664599   -0.006448799799
 N   -0.031665208462   -0.305642406131    0.006645275643
 C   -1.089351321275    0.495709624744    0.004152230815
 N   -2.321344437731   -0.108089404336   -0.041253592394
 H   -2.330278906052   -1.107783290847    0.128317016171
 H   -3.139922181934    0.418338915064    0.233646532403
 C   -1.020769322841    1.937086463939    0.000668797149
 H   -1.909293038526    2.568404055183   -0.008813156878
 H    2.267976723828    2.030415899630   -0.008291523599
NA   -0.429926509000   -3.480753579852    0.014193189537
