14

 N    1.328306040745    1.689805506421   -0.005066542500
 C    0.242859097842    2.512564476249   -0.001924671279
 H    0.434379937724    3.587621448748   -0.004429269821
 C    1.246442320063    0.270535044695   -0.004048873616
 O    2.290185567381   -0.382706845366   -0.006529714928
 N   -0.027395768618   -0.271604586898    0.006564360514
 C   -1.085081881431    0.529747443977    0.004071315686
 N   -2.317074997887   -0.074051585103   -0.041334507523
 H   -2.326009466208   -1.073745471614    0.128236101042
 H   -3.135652742090    0.452376734297    0.233565617274
 C   -1.016499882997    1.971124283172    0.000587882020
 H   -1.905023598682    2.602441874416   -0.008894072007
 H    2.272246163672    2.064453718863   -0.008372438728
NA   -0.450548400440   -3.645160208977    0.014584019027
