14

 N    1.330440760667    1.706824416038   -0.005107000064
 C    0.244993817764    2.529583385866   -0.001965128843
 H    0.436514657646    3.604640358365   -0.004469727385
 C    1.248577039985    0.287553954312   -0.004089331180
 O    2.292320287303   -0.365687935749   -0.006570172492
 N   -0.025261048696   -0.254585677281    0.006523902950
 C   -1.082947161509    0.546766353594    0.004030858122
 N   -2.314940277965   -0.057032675486   -0.041374965087
 H   -2.323874746286   -1.056726561997    0.128195643478
 H   -3.133518022168    0.469395643914    0.233525159710
 C   -1.014365163075    1.988143192789    0.000547424456
 H   -1.902888878760    2.619460784033   -0.008934529571
 H    2.274380883594    2.081472628480   -0.008412896292
NA   -0.460859346159   -3.727363523539    0.014779433772
