14

 N    1.332575480589    1.723843325654   -0.005147457629
 C    0.247128537686    2.546602295482   -0.002005586408
 H    0.438649377568    3.621659267981   -0.004510184950
 C    1.250711759907    0.304572863928   -0.004129788745
 O    2.294455007225   -0.348669026133   -0.006610630057
 N   -0.023126328774   -0.237566767665    0.006483445385
 C   -1.080812441587    0.563785263210    0.003990400557
 N   -2.312805558043   -0.040013765870   -0.041415422652
 H   -2.321740026364   -1.039707652381    0.128155185913
 H   -3.131383302246    0.486414553530    0.233484702145
 C   -1.012230443153    2.005162102405    0.000506966891
 H   -1.900754158838    2.636479693649   -0.008974987136
 H    2.276515603516    2.098491538096   -0.008453353857
NA   -0.471170291879   -3.809566838101    0.014974848517
