14

 N    1.334710200512    1.740862235271   -0.005187915193
 C    0.249263257609    2.563621205099   -0.002046043972
 H    0.440784097491    3.638678177598   -0.004550642514
 C    1.252846479830    0.321591773545   -0.004170246309
 O    2.296589727148   -0.331650116516   -0.006651087621
 N   -0.020991608851   -0.220547858048    0.006442987821
 C   -1.078677721664    0.580804172827    0.003949942993
 N   -2.310670838120   -0.022994856253   -0.041455880216
 H   -2.319605306441   -1.022688742764    0.128114728349
 H   -3.129248582323    0.503433463147    0.233444244581
 C   -1.010095723230    2.022181012022    0.000466509327
 H   -1.898619438915    2.653498603266   -0.009015444700
 H    2.278650323439    2.115510447713   -0.008493811421
NA   -0.481481237598   -3.891770152663    0.015170263262
