14

 N    1.336844920434    1.757881144888   -0.005228372757
 C    0.251397977531    2.580640114716   -0.002086501536
 H    0.442918817413    3.655697087215   -0.004591100078
 C    1.254981199752    0.338610683162   -0.004210703873
 O    2.298724447070   -0.314631206899   -0.006691545185
 N   -0.018856888929   -0.203528948431    0.006402530257
 C   -1.076543001742    0.597823082444    0.003909485429
 N   -2.308536118198   -0.005975946636   -0.041496337780
 H   -2.317470586519   -1.005669833147    0.128074270785
 H   -3.127113862401    0.520452372764    0.233403787017
 C   -1.007961003308    2.039199921639    0.000426051763
 H   -1.896484718993    2.670517512883   -0.009055902264
 H    2.280785043361    2.132529357330   -0.008534268985
NA   -0.491792183318   -3.973973467225    0.015365678007
