14

 N    1.345383800122    1.825956783354   -0.005390203014
 C    0.259936857219    2.648715753182   -0.002248331793
 H    0.451457697101    3.723772725681   -0.004752930335
 C    1.263520079440    0.406686321628   -0.004372534130
 O    2.307263326758   -0.246555568433   -0.006853375442
 N   -0.010318009241   -0.135453309965    0.006240700000
 C   -1.068004122054    0.665898720910    0.003747655172
 N   -2.299997238510    0.062099691830   -0.041658168037
 H   -2.308931706831   -0.937594194681    0.127912440528
 H   -3.118574982713    0.588528011230    0.233241956760
 C   -0.999422123620    2.107275560105    0.000264221506
 H   -1.887945839305    2.738593151349   -0.009217732521
 H    2.289323923049    2.200604995796   -0.008696099242
NA   -0.533035966197   -4.302786725474    0.016147336987
