14

 N    1.349653239967    1.859994602587   -0.005471118143
 C    0.264206297064    2.682753572415   -0.002329246922
 H    0.455727136946    3.757810544914   -0.004833845464
 C    1.267789519285    0.440724140861   -0.004453449259
 O    2.311532766603   -0.212517749200   -0.006934290571
 N   -0.006048569396   -0.101415490732    0.006159784871
 C   -1.063734682209    0.699936540143    0.003666740043
 N   -2.295727798665    0.096137511063   -0.041739083166
 H   -2.304662266986   -0.903556375448    0.127831525399
 H   -3.114305542868    0.622565830463    0.233161041631
 C   -0.995152683775    2.141313379338    0.000183306377
 H   -1.883676399460    2.772630970582   -0.009298647650
 H    2.293593362894    2.234642815029   -0.008777014371
NA   -0.553657857636   -4.467193354599    0.016538166476
