14

 N    1.371000439188    2.030183698753   -0.005875693785
 C    0.285553496285    2.852942668581   -0.002733822564
 H    0.477074336167    3.927999641080   -0.005238421106
 C    1.289136718506    0.610913237027   -0.004858024901
 O    2.332879965824   -0.042328653034   -0.007338866213
 N    0.015298629825    0.068773605434    0.005755209229
 C   -1.042387482988    0.870125636309    0.003262164401
 N   -2.274380599444    0.266326607229   -0.042143658808
 H   -2.283315067765   -0.733367279282    0.127426949757
 H   -3.092958343647    0.792754926629    0.232756465989
 C   -0.973805484554    2.311502475504   -0.000221269265
 H   -1.862329200239    2.942820066748   -0.009703223292
 H    2.314940562115    2.404831911195   -0.009181590013
NA   -0.656767314832   -5.289226500221    0.018492313926
