14

 N    1.375269879033    2.064221517986   -0.005956608914
 C    0.289822936130    2.886980487814   -0.002814737693
 H    0.481343776012    3.962037460313   -0.005319336235
 C    1.293406158351    0.644951056260   -0.004938940030
 O    2.337149405669   -0.008290833801   -0.007419781342
 N    0.019568069670    0.102811424667    0.005674294100
 C   -1.038118043143    0.904163455542    0.003181249272
 N   -2.270111159599    0.300364426462   -0.042224573937
 H   -2.279045627920   -0.699329460049    0.127346034628
 H   -3.088688903802    0.826792745862    0.232675550860
 C   -0.969536044709    2.345540294737   -0.000302184394
 H   -1.858059760394    2.976857885981   -0.009784138421
 H    2.319210001960    2.438869730428   -0.009262505142
NA   -0.677389206272   -5.453633129345    0.018883143416
