14

 N    1.377404598955    2.081240427602   -0.005997066478
 C    0.291957656052    2.903999397430   -0.002855195257
 H    0.483478495934    3.979056369929   -0.005359793799
 C    1.295540878273    0.661969965876   -0.004979397594
 O    2.339284125591    0.008728075815   -0.007460238906
 N    0.021702789592    0.119830334283    0.005633836536
 C   -1.035983323221    0.921182365158    0.003140791708
 N   -2.267976439677    0.317383336078   -0.042265031501
 H   -2.276910907998   -0.682310550433    0.127305577064
 H   -3.086554183880    0.843811655478    0.232635093296
 C   -0.967401324787    2.362559204353   -0.000342641958
 H   -1.855925040472    2.993876795597   -0.009824595985
 H    2.321344721882    2.455888640044   -0.009302962706
NA   -0.687700151991   -5.535836443908    0.019078558161
