14

 N    1.379539318877    2.098259337219   -0.006037524042
 C    0.294092375974    2.921018307047   -0.002895652821
 H    0.485613215856    3.996075279546   -0.005400251363
 C    1.297675598195    0.678988875493   -0.005019855158
 O    2.341418845513    0.025746985432   -0.007500696470
 N    0.023837509514    0.136849243900    0.005593378972
 C   -1.033848603299    0.938201274775    0.003100334144
 N   -2.265841719755    0.334402245695   -0.042305489065
 H   -2.274776188076   -0.665291640816    0.127265119500
 H   -3.084419463958    0.860830565095    0.232594635732
 C   -0.965266604865    2.379578113970   -0.000383099522
 H   -1.853790320550    3.010895705214   -0.009865053549
 H    2.323479441804    2.472907549661   -0.009343420270
NA   -0.698011097711   -5.618039758470    0.019273972906
