14

 N    1.385943478644    2.149316066069   -0.006158896735
 C    0.300496535741    2.972075035897   -0.003017025514
 H    0.492017375623    4.047132008396   -0.005521624056
 C    1.304079757962    0.730045604343   -0.005141227851
 O    2.347823005280    0.076803714282   -0.007622069163
 N    0.030241669281    0.187905972750    0.005472006279
 C   -1.027444443532    0.989258003625    0.002978961451
 N   -2.259437559988    0.385458974545   -0.042426861758
 H   -2.268372028309   -0.614234911966    0.127143746807
 H   -3.078015304191    0.911887293945    0.232473263039
 C   -0.958862445098    2.430634842820   -0.000504472215
 H   -1.847386160783    3.061952434064   -0.009986426242
 H    2.329883601571    2.523964278511   -0.009464792963
NA   -0.728943934870   -5.864649702157    0.019860217140
