14

 N    1.405155957943    2.302486252618   -0.006523014814
 C    0.319709015040    3.125245222446   -0.003381143593
 H    0.511229854922    4.200302194945   -0.005885742135
 C    1.323292237261    0.883215790892   -0.005505345930
 O    2.367035484579    0.229973900831   -0.007986187242
 N    0.049454148580    0.341076159299    0.005107888200
 C   -1.008231964233    1.142428190174    0.002614843372
 N   -2.240225080689    0.538629161094   -0.042790979837
 H   -2.249159549010   -0.461064725417    0.126779628728
 H   -3.058802824892    1.065057480494    0.232109144960
 C   -0.939649965799    2.583805029369   -0.000868590294
 H   -1.828173681484    3.215122620613   -0.010350544321
 H    2.349096080870    2.677134465060   -0.009828911042
NA   -0.821742446347   -6.604479533217    0.021618949845
