14

 N    1.409425397787    2.336524071851   -0.006603929942
 C    0.323978454884    3.159283041679   -0.003462058721
 H    0.515499294766    4.234340014178   -0.005966657263
 C    1.327561677105    0.917253610125   -0.005586261058
 O    2.371304924423    0.264011720064   -0.008067102370
 N    0.053723588424    0.375113978532    0.005026973072
 C   -1.003962524389    1.176466009407    0.002533928244
 N   -2.235955640845    0.572666980327   -0.042871894965
 H   -2.244890109166   -0.427026906184    0.126698713600
 H   -3.054533385048    1.099095299727    0.232028229832
 C   -0.935380525955    2.617842848602   -0.000949505422
 H   -1.823904241640    3.249160439846   -0.010431459449
 H    2.353365520714    2.711172284293   -0.009909826170
NA   -0.842364337786   -6.768886162341    0.022009779335
