14

 N    1.415829557554    2.387580800701   -0.006725302635
 C    0.330382614651    3.210339770529   -0.003583431414
 H    0.521903454533    4.285396743028   -0.006088029956
 C    1.333965836872    0.968310338975   -0.005707633751
 O    2.377709084190    0.315068448914   -0.008188475063
 N    0.060127748191    0.426170707382    0.004905600379
 C   -0.997558364622    1.227522738257    0.002412555551
 N   -2.229551481078    0.623723709177   -0.042993267658
 H   -2.238485949399   -0.375970177334    0.126577340907
 H   -3.048129225281    1.150152028577    0.231906857139
 C   -0.928976366188    2.668899577452   -0.001070878115
 H   -1.817500081873    3.300217168696   -0.010552832142
 H    2.359769680481    2.762229013143   -0.010031198863
NA   -0.873297174945   -7.015496106028    0.022596023570
