14

 N    1.422233717320    2.438637529550   -0.006846675328
 C    0.336786774417    3.261396499378   -0.003704804107
 H    0.528307614299    4.336453471877   -0.006209402649
 C    1.340369996638    1.019367067824   -0.005829006444
 O    2.384113243956    0.366125177763   -0.008309847756
 N    0.066531907957    0.477227436231    0.004784227686
 C   -0.991154204856    1.278579467106    0.002291182858
 N   -2.223147321312    0.674780438026   -0.043114640351
 H   -2.232081789633   -0.324913448485    0.126455968214
 H   -3.041725065515    1.201208757426    0.231785484446
 C   -0.922572206422    2.719956306301   -0.001192250808
 H   -1.811095922107    3.351273897545   -0.010674204835
 H    2.366173840247    2.813285741992   -0.010152571556
NA   -0.904230012104   -7.262106049714    0.023182267804
