14

 N    1.435042036853    2.540750987250   -0.007089420713
 C    0.349595093950    3.363509957078   -0.003947549492
 H    0.541115933832    4.438566929577   -0.006452148034
 C    1.353178316171    1.121480525524   -0.006071751829
 O    2.396921563489    0.468238635463   -0.008552593141
 N    0.079340227490    0.579340893931    0.004541482301
 C   -0.978345885323    1.380692924806    0.002048437473
 N   -2.210339001779    0.776893895726   -0.043357385736
 H   -2.219273470100   -0.222799990785    0.126213222829
 H   -3.028916745982    1.303322215126    0.231542739061
 C   -0.909763886889    2.822069764001   -0.001434996193
 H   -1.798287602574    3.453387355245   -0.010916950220
 H    2.378982159780    2.915399199692   -0.010395316941
NA   -0.966095686422   -7.755325937088    0.024354756274
