14

 N    1.445715636464    2.625845535333   -0.007291708535
 C    0.360268693561    3.448604505161   -0.004149837314
 H    0.551789533443    4.523661477660   -0.006654435856
 C    1.363851915782    1.206575073607   -0.006274039651
 O    2.407595163100    0.553333183546   -0.008754880963
 N    0.090013827101    0.664435442014    0.004339194479
 C   -0.967672285712    1.465787472889    0.001846149651
 N   -2.199665402168    0.861988443809   -0.043559673558
 H   -2.208599870489   -0.137705442702    0.126010935007
 H   -3.018243146371    1.388416763209    0.231340451239
 C   -0.899090287278    2.907164312084   -0.001637284015
 H   -1.787614002963    3.538481903328   -0.011119238042
 H    2.389655759391    3.000493747775   -0.010597604763
NA   -1.017650415020   -8.166342509899    0.025331829999
