14

 N    1.449985076308    2.659883354566   -0.007372623663
 C    0.364538133405    3.482642324394   -0.004230752442
 H    0.556058973287    4.557699296893   -0.006735350984
 C    1.368121355626    1.240612892840   -0.006354954779
 O    2.411864602944    0.587371002779   -0.008835796091
 N    0.094283266945    0.698473261247    0.004258279351
 C   -0.963402845868    1.499825292122    0.001765234523
 N   -2.195395962324    0.896026263042   -0.043640588686
 H   -2.204330430645   -0.103667623469    0.125930019879
 H   -3.013973706527    1.422454582442    0.231259536111
 C   -0.894820847434    2.941202131317   -0.001718199143
 H   -1.783344563119    3.572519722561   -0.011200153170
 H    2.393925199235    3.034531567008   -0.010678519891
NA   -1.038272306459   -8.330749139023    0.025722659489
