14

 N    1.462793395841    2.761996812265   -0.007615369049
 C    0.377346452938    3.584755782093   -0.004473497828
 H    0.568867292820    4.659812754592   -0.006978096370
 C    1.380929675159    1.342726350539   -0.006597700165
 O    2.424672922477    0.689484460478   -0.009078541477
 N    0.107091586478    0.800586718946    0.004015533965
 C   -0.950594526335    1.601938749821    0.001522489137
 N   -2.182587642791    0.998139720741   -0.043883334072
 H   -2.191522111112   -0.001554165770    0.125687274493
 H   -3.001165386994    1.524568040141    0.231016790725
 C   -0.882012527901    3.043315589016   -0.001960944529
 H   -1.770536243586    3.674633180260   -0.011442898556
 H    2.406733518768    3.136645024707   -0.010921265277
NA   -1.100137980777   -8.823969026396    0.026895147958
