13

 N   -2.034645651281    1.150537812825    0.000650439759
 C   -0.860906068198    1.877910004335    0.000337960589
 H   -0.978622928261    2.963228463379    0.000222113030
 C   -2.080421624361   -0.242673979042    0.000265385190
 O   -3.132009792917   -0.876777292883    0.000608752294
 N   -0.819981083220   -0.826144035174    0.000682288512
 H   -0.810165286097   -1.844429147040    0.000654984417
 C    0.441273206013   -0.190088548211    0.000699383348
 O    1.474966134081   -0.859352382627   -0.000046282316
 C    0.359794414253    1.270458513179    0.000199485901
 H    1.283194552555    1.847518772045   -0.000141190876
 H   -2.938382827229    1.610191934185    0.000448788159
 K    2.454383231718   -0.358612120121   -0.001203158052
