13

 N   -2.057622170892    1.138790755836    0.000677579348
 C   -0.883882587809    1.866162947346    0.000365100178
 H   -1.001599447872    2.951481406390    0.000249252619
 C   -2.103398143972   -0.254421036031    0.000292524779
 O   -3.154986312528   -0.888524349872    0.000635891883
 N   -0.842957602831   -0.837891092163    0.000709428101
 H   -0.833141805708   -1.856176204029    0.000682124006
 C    0.418296686402   -0.201835605200    0.000726522937
 O    1.451989614470   -0.871099439616   -0.000019142727
 C    0.336817894642    1.258711456190    0.000226625490
 H    1.260218032944    1.835771715056   -0.000114051287
 H   -2.961359346840    1.598444877196    0.000475927748
 K    2.520444630074   -0.324837335063   -0.001281188984
