13

 N   -2.195481288558    1.068308413905    0.000840416886
 C   -1.021741705475    1.795680605415    0.000527937716
 H   -1.139458565538    2.880999064459    0.000412090157
 C   -2.241257261638   -0.324903377962    0.000455362317
 O   -3.292845430194   -0.959006691803    0.000798729421
 N   -0.980816720497   -0.908373434094    0.000872265639
 H   -0.971000923374   -1.926658545960    0.000844961544
 C    0.280437568736   -0.272317947131    0.000889360475
 O    1.314130496804   -0.941581781547    0.000143694811
 C    0.198958776976    1.188229114259    0.000389463028
 H    1.122358915278    1.765289373125    0.000048786251
 H   -3.099218464506    1.527962535265    0.000638765286
 K    2.916813020210   -0.122188624718   -0.001749374575
