13

 N   -2.264410847391    1.033067242939    0.000921835654
 C   -1.090671264308    1.760439434449    0.000609356484
 H   -1.208388124371    2.845757893493    0.000493508925
 C   -2.310186820471   -0.360144548928    0.000536781085
 O   -3.361774989027   -0.994247862769    0.000880148189
 N   -1.049746279330   -0.943614605060    0.000953684407
 H   -1.039930482207   -1.961899716926    0.000926380312
 C    0.211508009903   -0.307559118097    0.000970779243
 O    1.245200937971   -0.976822952513    0.000225113579
 C    0.130029218143    1.152987943293    0.000470881796
 H    1.053429356445    1.730048202159    0.000130205019
 H   -3.168148023339    1.492721364299    0.000720184054
 K    3.114997215277   -0.020864269546   -0.001983467371
