13

 N   -2.333340406225    0.997826071973    0.001003254423
 C   -1.159600823142    1.725198263483    0.000690775253
 H   -1.277317683205    2.810516722527    0.000574927694
 C   -2.379116379305   -0.395385719894    0.000618199854
 O   -3.430704547861   -1.029489033735    0.000961566958
 N   -1.118675838164   -0.978855776026    0.001035103176
 H   -1.108860041041   -1.997140887892    0.001007799081
 C    0.142578451069   -0.342800289063    0.001052198012
 O    1.176271379137   -1.012064123479    0.000306532348
 C    0.061099659309    1.117746772327    0.000552300565
 H    0.984499797611    1.694807031193    0.000211623788
 H   -3.237077582173    1.457480193333    0.000801602823
 K    3.313181410345    0.080460085627   -0.002217560166
