13

 N   -2.494176043502    0.915596673053    0.001193231550
 C   -1.320436460419    1.642968864563    0.000880752380
 H   -1.438153320482    2.728287323607    0.000764904821
 C   -2.539952016582   -0.477615118814    0.000808176981
 O   -3.591540185138   -1.111718432655    0.001151544085
 N   -1.279511475441   -1.061085174946    0.001225080303
 H   -1.269695678318   -2.079370286812    0.001197776208
 C   -0.018257186208   -0.425029687983    0.001242175139
 O    1.015435741860   -1.094293522399    0.000496509475
 C   -0.099735977968    1.035517373407    0.000742277692
 H    0.823664160334    1.612577632273    0.000401600915
 H   -3.397913219450    1.375250794413    0.000991579950
 K    3.775611198837    0.316883581029   -0.002763776689
