13

 N   -2.632035161168    0.845114331122    0.001356069087
 C   -1.458295578085    1.572486522632    0.001043589917
 H   -1.576012438148    2.657804981676    0.000927742358
 C   -2.677811134248   -0.548097460745    0.000971014518
 O   -3.729399302804   -1.182200774586    0.001314381622
 N   -1.417370593107   -1.131567516877    0.001387917840
 H   -1.407554795984   -2.149852628743    0.001360613745
 C   -0.156116303874   -0.495512029914    0.001405012676
 O    0.877576624194   -1.164775864330    0.000659347012
 C   -0.237595095634    0.965035031476    0.000905115229
 H    0.685805042668    1.542095290342    0.000564438452
 H   -3.535772337116    1.304768452482    0.001154417487
 K    4.171979588973    0.519532291374   -0.003231962281
