13

 N   -2.677988200390    0.821620217145    0.001410348266
 C   -1.504248617307    1.548992408655    0.001097869096
 H   -1.621965477370    2.634310867699    0.000982021537
 C   -2.723764173470   -0.571591574722    0.001025293697
 O   -3.775352342026   -1.205694888563    0.001368660801
 N   -1.463323632329   -1.155061630854    0.001442197019
 H   -1.453507835206   -2.173346742720    0.001414892924
 C   -0.202069343096   -0.519006143891    0.001459291855
 O    0.831623584972   -1.188269978307    0.000713626191
 C   -0.283548134856    0.941540917499    0.000959394408
 H    0.639852003446    1.518601176365    0.000618717631
 H   -3.581725376338    1.281274338505    0.001208696666
 K    4.304102385684    0.587081861489   -0.003388024144
