13

 N   -2.723941239612    0.798126103168    0.001464627445
 C   -1.550201656529    1.525498294678    0.001152148275
 H   -1.667918516592    2.610816753722    0.001036300716
 C   -2.769717212692   -0.595085688699    0.001079572876
 O   -3.821305381248   -1.229189002540    0.001422939980
 N   -1.509276671551   -1.178555744831    0.001496476198
 H   -1.499460874428   -2.196840856697    0.001469172103
 C   -0.248022382318   -0.542500257868    0.001513571034
 O    0.785670545750   -1.211764092284    0.000767905370
 C   -0.329501174078    0.918046803522    0.001013673587
 H    0.593898964224    1.495107062388    0.000672996810
 H   -3.627678415560    1.257780224528    0.001262975845
 K    4.436225182396    0.654631431604   -0.003544086008
