13

 N   -2.769894278834    0.774631989191    0.001518906624
 C   -1.596154695751    1.502004180701    0.001206427454
 H   -1.713871555814    2.587322639745    0.001090579895
 C   -2.815670251914   -0.618579802676    0.001133852055
 O   -3.867258420470   -1.252683116517    0.001477219159
 N   -1.555229710773   -1.202049858808    0.001550755377
 H   -1.545413913650   -2.220334970674    0.001523451282
 C   -0.293975421540   -0.565994371845    0.001567850213
 O    0.739717506528   -1.235258206261    0.000822184549
 C   -0.375454213300    0.894552689545    0.001067952766
 H    0.547945925002    1.471612948411    0.000727275989
 H   -3.673631454782    1.234286110551    0.001317255024
 K    4.568347979108    0.722181001719   -0.003700147872
