13

 N   -2.815847318056    0.751137875213    0.001573185803
 C   -1.642107734973    1.478510066723    0.001260706633
 H   -1.759824595036    2.563828525767    0.001144859074
 C   -2.861623291136   -0.642073916654    0.001188131234
 O   -3.913211459692   -1.276177230495    0.001531498338
 N   -1.601182749995   -1.225543972786    0.001605034556
 H   -1.591366952872   -2.243829084652    0.001577730461
 C   -0.339928460762   -0.589488485823    0.001622129392
 O    0.693764467306   -1.258752320239    0.000876463728
 C   -0.421407252522    0.871058575567    0.001122231945
 H    0.501992885780    1.448118834433    0.000781555168
 H   -3.719584494004    1.210791996573    0.001371534203
 K    4.700470775820    0.789730571834   -0.003856209735
