13

 N   -2.861800357278    0.727643761236    0.001627464982
 C   -1.688060774195    1.455015952746    0.001314985812
 H   -1.805777634258    2.540334411790    0.001199138253
 C   -2.907576330358   -0.665568030631    0.001242410413
 O   -3.959164498914   -1.299671344472    0.001585777517
 N   -1.647135789217   -1.249038086763    0.001659313735
 H   -1.637319992094   -2.267323198629    0.001632009640
 C   -0.385881499984   -0.612982599800    0.001676408571
 O    0.647811428084   -1.282246434216    0.000930742907
 C   -0.467360291744    0.847564461590    0.001176511124
 H    0.456039846558    1.424624720456    0.000835834347
 H   -3.765537533226    1.187297882596    0.001425813382
 K    4.832593572532    0.857280141949   -0.004012271599
