13

 N   -2.930729916112    0.692402590271    0.001708883751
 C   -1.756990333029    1.419774781781    0.001396404581
 H   -1.874707193092    2.505093240825    0.001280557022
 C   -2.976505889192   -0.700809201596    0.001323829182
 O   -4.028094057748   -1.334912515437    0.001667196286
 N   -1.716065348051   -1.284279257728    0.001740732504
 H   -1.706249550928   -2.302564369594    0.001713428409
 C   -0.454811058818   -0.648223770765    0.001757827340
 O    0.578881869250   -1.317487605181    0.001012161676
 C   -0.536289850578    0.812323290625    0.001257929893
 H    0.387110287724    1.389383549491    0.000917253116
 H   -3.834467092060    1.152056711631    0.001507232151
 K    5.030777767600    0.958604497121   -0.004246364395
