13

 N   -2.976682955334    0.668908476294    0.001763162930
 C   -1.802943372251    1.396280667804    0.001450683760
 H   -1.920660232314    2.481599126848    0.001334836201
 C   -3.022458928414   -0.724303315573    0.001378108361
 O   -4.074047096970   -1.358406629414    0.001721475465
 N   -1.762018387273   -1.307773371705    0.001795011683
 H   -1.752202590150   -2.326058483571    0.001767707588
 C   -0.500764098040   -0.671717884742    0.001812106519
 O    0.532928830028   -1.340981719158    0.001066440855
 C   -0.582242889800    0.788829176648    0.001312209072
 H    0.341157248502    1.365889435514    0.000971532295
 H   -3.880420131282    1.128562597654    0.001561511330
 K    5.162900564312    1.026154067236   -0.004402426259
