13

 N   -3.022635994556    0.645414362316    0.001817442109
 C   -1.848896411473    1.372786553826    0.001504962939
 H   -1.966613271536    2.458105012870    0.001389115380
 C   -3.068411967636   -0.747797429551    0.001432387540
 O   -4.120000136192   -1.381900743392    0.001775754644
 N   -1.807971426495   -1.331267485683    0.001849290862
 H   -1.798155629372   -2.349552597549    0.001821986767
 C   -0.546717137262   -0.695211998720    0.001866385698
 O    0.486975790806   -1.364475833136    0.001120720034
 C   -0.628195929022    0.765335062670    0.001366488251
 H    0.295204209280    1.342395321536    0.001025811474
 H   -3.926373170504    1.105068483676    0.001615790509
 K    5.295023361024    1.093703637351   -0.004558488122
