13

 N   -3.091565553389    0.610173191351    0.001898860878
 C   -1.917825970306    1.337545382861    0.001586381708
 H   -2.035542830369    2.422863841905    0.001470534149
 C   -3.137341526469   -0.783038600516    0.001513806309
 O   -4.188929695025   -1.417141914357    0.001857173413
 N   -1.876900985328   -1.366508656648    0.001930709631
 H   -1.867085188205   -2.384793768514    0.001903405536
 C   -0.615646696095   -0.730453169685    0.001947804467
 O    0.418046231973   -1.399717004101    0.001202138803
 C   -0.697125487855    0.730093891705    0.001447907020
 H    0.226274650447    1.307154150571    0.001107230243
 H   -3.995302729337    1.069827312711    0.001697209278
 K    5.493207556091    1.195027992523   -0.004792580918
