13

 N   -3.137518592611    0.586679077374    0.001953140057
 C   -1.963779009528    1.314051268884    0.001640660887
 H   -2.081495869591    2.399369727928    0.001524813328
 C   -3.183294565691   -0.806532714493    0.001568085488
 O   -4.234882734247   -1.440636028334    0.001911452592
 N   -1.922854024550   -1.390002770625    0.001984988810
 H   -1.913038227427   -2.408287882491    0.001957684715
 C   -0.661599735317   -0.753947283662    0.002002083646
 O    0.372093192751   -1.423211118078    0.001256417982
 C   -0.743078527077    0.706599777728    0.001502186199
 H    0.180321611225    1.283660036594    0.001161509422
 H   -4.041255768559    1.046333198734    0.001751488457
 K    5.625330352803    1.262577562638   -0.004948642782
