13

 N   -3.160495112222    0.574932020385    0.001980279647
 C   -1.986755529139    1.302304211895    0.001667800477
 H   -2.104472389202    2.387622670939    0.001551952918
 C   -3.206271085302   -0.818279771482    0.001595225078
 O   -4.257859253858   -1.452383085323    0.001938592182
 N   -1.945830544161   -1.401749827614    0.002012128400
 H   -1.936014747038   -2.420034939480    0.001984824305
 C   -0.684576254928   -0.765694340651    0.002029223236
 O    0.349116673140   -1.434958175067    0.001283557572
 C   -0.766055046688    0.694852720739    0.001529325789
 H    0.157345091614    1.271912979605    0.001188649012
 H   -4.064232288170    1.034586141745    0.001778628047
 K    5.691391751159    1.296352347696   -0.005026673714
