13

 N   -3.275377710277    0.516196735442    0.002115977594
 C   -2.101638127194    1.243568926952    0.001803498424
 H   -2.219354987257    2.328887385996    0.001687650865
 C   -3.321153683357   -0.877015056425    0.001730923025
 O   -4.372741851913   -1.511118370266    0.002074290129
 N   -2.060713142216   -1.460485112557    0.002147826347
 H   -2.050897345093   -2.478770224423    0.002120522252
 C   -0.799458852983   -0.824429625594    0.002164921183
 O    0.234234075085   -1.493693460010    0.001419255519
 C   -0.880937644743    0.636117435796    0.001665023736
 H    0.042462493559    1.213177694662    0.001324346959
 H   -4.179114886225    0.975850856802    0.001914325994
 K    6.021698742939    1.465226272983   -0.005416828373
