13

 N   -3.298354229888    0.504449678454    0.002143117184
 C   -2.124614646805    1.231821869964    0.001830638014
 H   -2.242331506868    2.317140329008    0.001714790455
 C   -3.344130202968   -0.888762113413    0.001758062615
 O   -4.395718371524   -1.522865427254    0.002101429719
 N   -2.083689661827   -1.472232169545    0.002174965937
 H   -2.073873864704   -2.490517281411    0.002147661842
 C   -0.822435372594   -0.836176682582    0.002192060773
 O    0.211257555474   -1.505440516998    0.001446395109
 C   -0.903914164354    0.624370378808    0.001692163326
 H    0.019485973948    1.201430637674    0.001351486549
 H   -4.202091405836    0.964103799814    0.001941465584
 K    6.087760141295    1.499001058041   -0.005494859305
