13

 N   -3.321330749499    0.492702621465    0.002170256773
 C   -2.147591166416    1.220074812975    0.001857777603
 H   -2.265308026479    2.305393272019    0.001741930044
 C   -3.367106722579   -0.900509170402    0.001785202204
 O   -4.418694891135   -1.534612484243    0.002128569308
 N   -2.106666181438   -1.483979226534    0.002202105526
 H   -2.096850384315   -2.502264338400    0.002174801431
 C   -0.845411892205   -0.847923739571    0.002219200362
 O    0.188281035863   -1.517187573987    0.001473534698
 C   -0.926890683965    0.612623321819    0.001719302915
 H   -0.003490545663    1.189683580685    0.001378626138
 H   -4.225067925447    0.952356742825    0.001968605173
 K    6.153821539651    1.532775843098   -0.005572890237
