13

 N   -3.344307269110    0.480955564476    0.002197396363
 C   -2.170567686027    1.208327755986    0.001884917193
 H   -2.288284546090    2.293646215030    0.001769069634
 C   -3.390083242190   -0.912256227391    0.001812341794
 O   -4.441671410746   -1.546359541232    0.002155708898
 N   -2.129642701049   -1.495726283523    0.002229245116
 H   -2.119826903926   -2.514011395389    0.002201941021
 C   -0.868388411816   -0.859670796560    0.002246339952
 O    0.165304516252   -1.528934630976    0.001500674288
 C   -0.949867203576    0.600876264830    0.001746442505
 H   -0.026467065274    1.177936523696    0.001405765728
 H   -4.248044445058    0.940609685836    0.001995744763
 K    6.219882938007    1.566550628156   -0.005650921168
