13

 N   -3.367283788721    0.469208507488    0.002224535953
 C   -2.193544205638    1.196580698998    0.001912056783
 H   -2.311261065701    2.281899158042    0.001796209224
 C   -3.413059761801   -0.924003284379    0.001839481384
 O   -4.464647930357   -1.558106598220    0.002182848488
 N   -2.152619220660   -1.507473340511    0.002256384706
 H   -2.142803423537   -2.525758452377    0.002229080611
 C   -0.891364931427   -0.871417853548    0.002273479542
 O    0.142327996641   -1.540681687964    0.001527813878
 C   -0.972843723187    0.589129207842    0.001773582095
 H   -0.049443584885    1.166189466708    0.001432905318
 H   -4.271020964669    0.928862628848    0.002022884353
 K    6.285944336363    1.600325413213   -0.005728952100
