13

 N   -3.390260308332    0.457461450499    0.002251675542
 C   -2.216520725249    1.184833642009    0.001939196372
 H   -2.334237585312    2.270152101053    0.001823348813
 C   -3.436036281412   -0.935750341368    0.001866620973
 O   -4.487624449968   -1.569853655209    0.002209988077
 N   -2.175595740271   -1.519220397500    0.002283524295
 H   -2.165779943148   -2.537505509366    0.002256220200
 C   -0.914341451038   -0.883164910537    0.002300619131
 O    0.119351477030   -1.552428744953    0.001554953467
 C   -0.995820242798    0.577382150853    0.001800721684
 H   -0.072420104496    1.154442409719    0.001460044907
 H   -4.293997484280    0.917115571859    0.002050023942
 K    6.352005734719    1.634100198271   -0.005806983032
