13

 N   -3.436213347554    0.433967336522    0.002305954721
 C   -2.262473764471    1.161339528032    0.001993475551
 H   -2.380190624534    2.246657987076    0.001877627992
 C   -3.481989320634   -0.959244455345    0.001920900152
 O   -4.533577489190   -1.593347769186    0.002264267256
 N   -2.221548779493   -1.542714511477    0.002337803474
 H   -2.211732982370   -2.560999623343    0.002310499379
 C   -0.960294490260   -0.906659024514    0.002354898310
 O    0.073398437808   -1.575922858930    0.001609232646
 C   -1.041773282020    0.553888036876    0.001855000863
 H   -0.118373143718    1.130948295742    0.001514324086
 H   -4.339950523502    0.893621457882    0.002104303121
 K    6.484128531431    1.701649768386   -0.005963044896
