13

 N   -3.505142906388    0.398726165556    0.002387373490
 C   -2.331403323305    1.126098357066    0.002074894320
 H   -2.449120183368    2.211416816110    0.001959046761
 C   -3.550918879468   -0.994485626311    0.002002318921
 O   -4.602507048024   -1.628588940152    0.002345686025
 N   -2.290478338327   -1.577955682443    0.002419222243
 H   -2.280662541204   -2.596240794309    0.002391918148
 C   -1.029224049094   -0.941900195480    0.002436317079
 O    0.004468878974   -1.611164029896    0.001690651415
 C   -1.110702840854    0.518646865910    0.001936419632
 H   -0.187302702552    1.095707124776    0.001595742855
 H   -4.408880082336    0.858380286916    0.002185721890
 K    6.682312726499    1.802974123558   -0.006197137692
