13

 N   -3.574072465221    0.363484994591    0.002468792258
 C   -2.400332882138    1.090857186101    0.002156313088
 H   -2.518049742201    2.176175645145    0.002040465529
 C   -3.619848438301   -1.029726797276    0.002083737689
 O   -4.671436606857   -1.663830111117    0.002427104793
 N   -2.359407897160   -1.613196853408    0.002500641011
 H   -2.349592100037   -2.631481965274    0.002473336916
 C   -1.098153607927   -0.977141366445    0.002517735847
 O   -0.064460679859   -1.646405200861    0.001772070183
 C   -1.179632399687    0.483405694945    0.002017838400
 H   -0.256232261385    1.060465953811    0.001677161623
 H   -4.477809641169    0.823139115951    0.002267140658
 K    6.880496921566    1.904298478730   -0.006431230487
