13

 N   -3.597048984832    0.351737937602    0.002495931848
 C   -2.423309401749    1.079110129112    0.002183452678
 H   -2.541026261812    2.164428588156    0.002067605119
 C   -3.642824957912   -1.041473854265    0.002110877279
 O   -4.694413126468   -1.675577168106    0.002454244383
 N   -2.382384416771   -1.624943910397    0.002527780601
 H   -2.372568619648   -2.643229022263    0.002500476506
 C   -1.121130127538   -0.988888423434    0.002544875437
 O   -0.087437199470   -1.658152257850    0.001799209773
 C   -1.202608919298    0.471658637956    0.002044977990
 H   -0.279208780996    1.048718896822    0.001704301213
 H   -4.500786160780    0.811392058962    0.002294280248
 K    6.946558319922    1.938073263788   -0.006509261419
