13

 N   -3.620025504443    0.339990880614    0.002523071438
 C   -2.446285921360    1.067363072124    0.002210592268
 H   -2.564002781423    2.152681531168    0.002094744709
 C   -3.665801477523   -1.053220911253    0.002138016869
 O   -4.717389646079   -1.687324225094    0.002481383973
 N   -2.405360936382   -1.636690967385    0.002554920191
 H   -2.395545139259   -2.654976079251    0.002527616096
 C   -1.144106647149   -1.000635480422    0.002572015027
 O   -0.110413719081   -1.669899314838    0.001826349363
 C   -1.225585438909    0.459911580968    0.002072117580
 H   -0.302185300607    1.036971839834    0.001731440803
 H   -4.523762680391    0.799645001974    0.002321419838
 K    7.012619718278    1.971848048845   -0.006587292351
