13

 N   -3.757884622109    0.269508538682    0.002685908975
 C   -2.584145039026    0.996880730192    0.002373429805
 H   -2.701861899089    2.082199189236    0.002257582246
 C   -3.803660595189   -1.123703253185    0.002300854406
 O   -4.855248763745   -1.757806567026    0.002644221510
 N   -2.543220054048   -1.707173309317    0.002717757728
 H   -2.533404256925   -2.725458421183    0.002690453633
 C   -1.281965764815   -1.071117822354    0.002734852564
 O   -0.248272836747   -1.740381656770    0.001989186900
 C   -1.363444556575    0.389429239036    0.002234955117
 H   -0.440044418273    0.966489497902    0.001894278340
 H   -4.661621798057    0.729162660042    0.002484257375
 K    7.408988108414    2.174496759190   -0.007055477942
