13

 N   -3.803837661331    0.246014424705    0.002740188154
 C   -2.630098078248    0.973386616215    0.002427708984
 H   -2.747814938311    2.058705075259    0.002311861425
 C   -3.849613634411   -1.147197367162    0.002355133585
 O   -4.901201802967   -1.781300681003    0.002698500689
 N   -2.589173093270   -1.730667423294    0.002772036907
 H   -2.579357296147   -2.748952535160    0.002744732812
 C   -1.327918804037   -1.094611936331    0.002789131743
 O   -0.294225875969   -1.763875770747    0.002043466079
 C   -1.409397595797    0.365935125059    0.002289234296
 H   -0.485997457495    0.942995383925    0.001948557519
 H   -4.707574837279    0.705668546065    0.002538536554
 K    7.541110905126    2.242046329305   -0.007211539806
