13

 N   -3.826814180942    0.234267367716    0.002767327744
 C   -2.653074597859    0.961639559226    0.002454848574
 H   -2.770791457922    2.046958018270    0.002339001015
 C   -3.872590154022   -1.158944424151    0.002382273175
 O   -4.924178322578   -1.793047737992    0.002725640279
 N   -2.612149612881   -1.742414480283    0.002799176497
 H   -2.602333815758   -2.760699592149    0.002771872402
 C   -1.350895323648   -1.106358993320    0.002816271333
 O   -0.317202395580   -1.775622827736    0.002070605669
 C   -1.432374115408    0.354188068070    0.002316373886
 H   -0.508973977106    0.931248326936    0.001975697109
 H   -4.730551356890    0.693921489076    0.002565676144
 K    7.607172303482    2.275821114363   -0.007289570738
