13

 N   -3.849790700553    0.222520310728    0.002794467333
 C   -2.676051117470    0.949892502238    0.002481988163
 H   -2.793767977533    2.035210961282    0.002366140604
 C   -3.895566673633   -1.170691481139    0.002409412764
 O   -4.947154842189   -1.804794794980    0.002752779868
 N   -2.635126132492   -1.754161537271    0.002826316086
 H   -2.625310335369   -2.772446649137    0.002799011991
 C   -1.373871843259   -1.118106050308    0.002843410922
 O   -0.340178915191   -1.787369884724    0.002097745258
 C   -1.455350635019    0.342441011082    0.002343513475
 H   -0.531950496717    0.919501269948    0.002002836698
 H   -4.753527876501    0.682174432088    0.002592815733
 K    7.673233701838    2.309595899420   -0.007367601670
