13

 N   -3.872767220164    0.210773253739    0.002821606923
 C   -2.699027637081    0.938145445249    0.002509127753
 H   -2.816744497144    2.023463904293    0.002393280194
 C   -3.918543193244   -1.182438538128    0.002436552354
 O   -4.970131361800   -1.816541851969    0.002779919458
 N   -2.658102652103   -1.765908594260    0.002853455676
 H   -2.648286854980   -2.784193706126    0.002826151581
 C   -1.396848362870   -1.129853107297    0.002870550512
 O   -0.363155434802   -1.799116941713    0.002124884848
 C   -1.478327154630    0.330693954093    0.002370653065
 H   -0.554927016328    0.907754212959    0.002029976288
 H   -4.776504396112    0.670427375099    0.002619955323
 K    7.739295100194    2.343370684478   -0.007445632602
