13

 N   -3.918720259386    0.187279139762    0.002875886102
 C   -2.744980676303    0.914651331272    0.002563406932
 H   -2.862697536366    1.999969790316    0.002447559373
 C   -3.964496232466   -1.205932652105    0.002490831533
 O   -5.016084401022   -1.840035965946    0.002834198637
 N   -2.704055691325   -1.789402708237    0.002907734855
 H   -2.694239894202   -2.807687820103    0.002880430760
 C   -1.442801402092   -1.153347221274    0.002924829691
 O   -0.409108474024   -1.822611055690    0.002179164027
 C   -1.524280193852    0.307199840116    0.002424932244
 H   -0.600880055550    0.884260098982    0.002084255467
 H   -4.822457435334    0.646933261122    0.002674234502
 K    7.871417896906    2.410920254593   -0.007601694465
