13

 N   -3.964673298608    0.163785025785    0.002930165281
 C   -2.790933715525    0.891157217295    0.002617686111
 H   -2.908650575588    1.976475676339    0.002501838552
 C   -4.010449271688   -1.229426766082    0.002545110712
 O   -5.062037440244   -1.863530079923    0.002888477816
 N   -2.750008730547   -1.812896822214    0.002962014034
 H   -2.740192933424   -2.831181934080    0.002934709939
 C   -1.488754441314   -1.176841335251    0.002979108870
 O   -0.455061513246   -1.846105169667    0.002233443206
 C   -1.570233233074    0.283705726139    0.002479211423
 H   -0.646833094772    0.860765985005    0.002138534646
 H   -4.868410474556    0.623439147145    0.002728513681
 K    8.003540693617    2.478469824708   -0.007757756329
