13

 N   -4.010626337830    0.140290911808    0.002984444460
 C   -2.836886754747    0.867663103318    0.002671965290
 H   -2.954603614810    1.952981562362    0.002556117731
 C   -4.056402310910   -1.252920880059    0.002599389891
 O   -5.107990479466   -1.887024193900    0.002942756995
 N   -2.795961769769   -1.836390936191    0.003016293213
 H   -2.786145972646   -2.854676048057    0.002988989118
 C   -1.534707480536   -1.200335449228    0.003033388049
 O   -0.501014552468   -1.869599283644    0.002287722385
 C   -1.616186272296    0.260211612162    0.002533490602
 H   -0.692786133994    0.837271871028    0.002192813825
 H   -4.914363513778    0.599945033168    0.002782792860
 K    8.135663490329    2.546019394823   -0.007913818193
