13

 N   -4.033602857442    0.128543854819    0.003011584049
 C   -2.859863274359    0.855916046329    0.002699104879
 H   -2.977580134422    1.941234505373    0.002583257320
 C   -4.079378830522   -1.264667937048    0.002626529480
 O   -5.130966999078   -1.898771250889    0.002969896584
 N   -2.818938289381   -1.848137993180    0.003043432802
 H   -2.809122492258   -2.866423105046    0.003016128707
 C   -1.557684000148   -1.212082506217    0.003060527638
 O   -0.523991072080   -1.881346340633    0.002314861974
 C   -1.639162791908    0.248464555173    0.002560630191
 H   -0.715762653606    0.825524814039    0.002219953414
 H   -4.937340033390    0.588197976179    0.002809932449
 K    8.201724888685    2.579794179880   -0.007991849125
