14

 P   -0.487490002317    0.345668118030    0.063219621269
 O   -1.074490002317    1.395668118030    1.018219621269
 O   -0.753490002317    0.393668118030   -1.448780378731
 O    1.175509997683    0.171668118030    0.350219621269
 O   -0.802490002317   -1.212331881970    0.655219621269
 C    1.912509997683    1.336668118030   -0.026780378731
 H    1.581509997683    2.219668118030    0.549219621269
 H    1.797509997683    1.547668118030   -1.104780378731
 H    2.972509997683    1.134668118030    0.193219621269
 C   -2.193490002317   -1.535331881970    0.605219621269
 H   -2.571490002317   -1.508331881970   -0.432780378731
 H   -2.786490002317   -0.836331881970    1.221219621269
 H   -2.303490002317   -2.555331881970    1.005219621269
 K    1.105215974227   -0.520988770771   -0.501417146762
