14

 P   -0.485971423733    0.360631750297    0.081617733852
 O   -1.072971423733    1.410631750297    1.036617733852
 O   -0.751971423733    0.408631750297   -1.430382266148
 O    1.177028576267    0.186631750297    0.368617733852
 O   -0.800971423733   -1.197368249703    0.673617733852
 C    1.914028576267    1.351631750297   -0.008382266148
 H    1.583028576267    2.234631750297    0.567617733852
 H    1.799028576267    1.562631750297   -1.086382266148
 H    2.974028576267    1.149631750297    0.211617733852
 C   -2.191971423733   -1.520368249703    0.623617733852
 H   -2.569971423733   -1.493368249703   -0.414382266148
 H   -2.784971423733   -0.821368249703    1.239617733852
 H   -2.301971423733   -2.540368249703    1.023617733852
 K    1.100344187042   -0.568993946577   -0.560440558545
