14

 P   -0.484452845149    0.375595382564    0.100015846436
 O   -1.071452845149    1.425595382564    1.055015846436
 O   -0.750452845149    0.423595382564   -1.411984153564
 O    1.178547154851    0.201595382564    0.387015846436
 O   -0.799452845149   -1.182404617436    0.692015846436
 C    1.915547154851    1.366595382564    0.010015846436
 H    1.584547154851    2.249595382564    0.586015846436
 H    1.800547154851    1.577595382564   -1.067984153564
 H    2.975547154851    1.164595382564    0.230015846436
 C   -2.190452845149   -1.505404617436    0.642015846436
 H   -2.568452845149   -1.478404617436   -0.395984153564
 H   -2.783452845149   -0.806404617436    1.258015846436
 H   -2.300452845149   -2.525404617436    1.042015846436
 K    1.095472399858   -0.616999122383   -0.619463970328
