14

 P   -0.482934266564    0.390559014831    0.118413959019
 O   -1.069934266564    1.440559014831    1.073413959019
 O   -0.748934266564    0.438559014831   -1.393586040981
 O    1.180065733436    0.216559014831    0.405413959019
 O   -0.797934266564   -1.167440985169    0.710413959019
 C    1.917065733436    1.381559014831    0.028413959019
 H    1.586065733436    2.264559014831    0.604413959019
 H    1.802065733436    1.592559014831   -1.049586040981
 H    2.977065733436    1.179559014831    0.248413959019
 C   -2.188934266564   -1.490440985169    0.660413959019
 H   -2.566934266564   -1.463440985169   -0.377586040981
 H   -2.781934266564   -0.791440985169    1.276413959019
 H   -2.298934266564   -2.510440985169    1.060413959019
 K    1.090600612674   -0.665004298189   -0.678487382111
