14

 P   -0.481415687980    0.405522647098    0.136812071602
 O   -1.068415687980    1.455522647098    1.091812071602
 O   -0.747415687980    0.453522647098   -1.375187928398
 O    1.181584312020    0.231522647098    0.423812071602
 O   -0.796415687980   -1.152477352902    0.728812071602
 C    1.918584312020    1.396522647098    0.046812071602
 H    1.587584312020    2.279522647098    0.622812071602
 H    1.803584312020    1.607522647098   -1.031187928398
 H    2.978584312020    1.194522647098    0.266812071602
 C   -2.187415687980   -1.475477352902    0.678812071602
 H   -2.565415687980   -1.448477352902   -0.359187928398
 H   -2.780415687980   -0.776477352902    1.294812071602
 H   -2.297415687980   -2.495477352902    1.078812071602
 K    1.085728825489   -0.713009473995   -0.737510793894
