14

 P   -0.479897109396    0.420486279365    0.155210184186
 O   -1.066897109396    1.470486279365    1.110210184186
 O   -0.745897109396    0.468486279365   -1.356789815814
 O    1.183102890604    0.246486279365    0.442210184186
 O   -0.794897109396   -1.137513720635    0.747210184186
 C    1.920102890604    1.411486279365    0.065210184186
 H    1.589102890604    2.294486279365    0.641210184186
 H    1.805102890604    1.622486279365   -1.012789815814
 H    2.980102890604    1.209486279365    0.285210184186
 C   -2.185897109396   -1.460513720635    0.697210184186
 H   -2.563897109396   -1.433513720635   -0.340789815814
 H   -2.778897109396   -0.761513720635    1.313210184186
 H   -2.295897109396   -2.480513720635    1.097210184186
 K    1.080857038305   -0.761014649801   -0.796534205678
