14

 P   -0.478378530812    0.435449911632    0.173608296769
 O   -1.065378530812    1.485449911632    1.128608296769
 O   -0.744378530812    0.483449911632   -1.338391703231
 O    1.184621469188    0.261449911632    0.460608296769
 O   -0.793378530812   -1.122550088368    0.765608296769
 C    1.921621469188    1.426449911632    0.083608296769
 H    1.590621469188    2.309449911632    0.659608296769
 H    1.806621469188    1.637449911632   -0.994391703231
 H    2.981621469188    1.224449911632    0.303608296769
 C   -2.184378530812   -1.445550088368    0.715608296769
 H   -2.562378530812   -1.418550088368   -0.322391703231
 H   -2.777378530812   -0.746550088368    1.331608296769
 H   -2.294378530812   -2.465550088368    1.115608296769
 K    1.075985251120   -0.809019825607   -0.855557617461
