14

 P   -0.469267059306    0.525231705233    0.283996972269
 O   -1.056267059306    1.575231705233    1.238996972269
 O   -0.735267059306    0.573231705233   -1.228003027731
 O    1.193732940694    0.351231705233    0.570996972269
 O   -0.784267059306   -1.032768294767    0.875996972269
 C    1.930732940694    1.516231705233    0.193996972269
 H    1.599732940694    2.399231705233    0.769996972269
 H    1.815732940694    1.727231705233   -0.884003027731
 H    2.990732940694    1.314231705233    0.413996972269
 C   -2.175267059306   -1.355768294767    0.825996972269
 H   -2.553267059306   -1.328768294767   -0.212003027731
 H   -2.768267059306   -0.656768294767    1.441996972269
 H   -2.285267059306   -2.375768294767    1.225996972269
 K    1.046754528013   -1.097050880443   -1.209698088159
