14

 P   -0.466229902138    0.555158969767    0.320793197436
 O   -1.053229902138    1.605158969767    1.275793197436
 O   -0.732229902138    0.603158969767   -1.191206802564
 O    1.196770097862    0.381158969767    0.607793197436
 O   -0.781229902138   -1.002841030233    0.912793197436
 C    1.933770097862    1.546158969767    0.230793197436
 H    1.602770097862    2.429158969767    0.806793197436
 H    1.818770097862    1.757158969767   -0.847206802564
 H    2.993770097862    1.344158969767    0.450793197436
 C   -2.172229902138   -1.325841030233    0.862793197436
 H   -2.550229902138   -1.298841030233   -0.175206802564
 H   -2.765229902138   -0.626841030233    1.478793197436
 H   -2.282229902138   -2.345841030233    1.262793197436
 K    1.037010953644   -1.193061232055   -1.327744911726
