14

 P   -0.461674166385    0.600049866567    0.375987535186
 O   -1.048674166385    1.650049866567    1.330987535186
 O   -0.727674166385    0.648049866567   -1.136012464814
 O    1.201325833615    0.426049866567    0.662987535186
 O   -0.776674166385   -0.957950133433    0.967987535186
 C    1.938325833615    1.591049866567    0.285987535186
 H    1.607325833615    2.474049866567    0.861987535186
 H    1.823325833615    1.802049866567   -0.792012464814
 H    2.998325833615    1.389049866567    0.505987535186
 C   -2.167674166385   -1.280950133433    0.917987535186
 H   -2.545674166385   -1.253950133433   -0.120012464814
 H   -2.760674166385   -0.581950133433    1.533987535186
 H   -2.277674166385   -2.300950133433    1.317987535186
 K    1.022395592091   -1.337076759473   -1.504815147075
