14

 P   -0.455599852048    0.659904395635    0.449579985519
 O   -1.042599852048    1.709904395635    1.404579985519
 O   -0.721599852048    0.707904395635   -1.062420014481
 O    1.207400147952    0.485904395635    0.736579985519
 O   -0.770599852048   -0.898095604365    1.041579985519
 C    1.944400147952    1.650904395635    0.359579985519
 H    1.613400147952    2.533904395635    0.935579985519
 H    1.829400147952    1.861904395635   -0.718420014481
 H    3.004400147952    1.448904395635    0.579579985519
 C   -2.161599852048   -1.221095604365    0.991579985519
 H   -2.539599852048   -1.194095604365   -0.046420014481
 H   -2.754599852048   -0.522095604365    1.607579985519
 H   -2.271599852048   -2.241095604365    1.391579985519
 K    1.002908443353   -1.529097462697   -1.740908794208
