14

 P   -0.454081273464    0.674868027902    0.467978098102
 O   -1.041081273464    1.724868027902    1.422978098102
 O   -0.720081273464    0.722868027902   -1.044021901898
 O    1.208918726536    0.500868027902    0.754978098102
 O   -0.769081273464   -0.883131972098    1.059978098102
 C    1.945918726536    1.665868027902    0.377978098102
 H    1.614918726536    2.548868027902    0.953978098102
 H    1.830918726536    1.876868027902   -0.700021901898
 H    3.005918726536    1.463868027902    0.597978098102
 C   -2.160081273464   -1.206131972098    1.009978098102
 H   -2.538081273464   -1.179131972098   -0.028021901898
 H   -2.753081273464   -0.507131972098    1.625978098102
 H   -2.270081273464   -2.226131972098    1.409978098102
 K    0.998036656168   -1.577102638502   -1.799932205991
