14

 P   -0.452562694880    0.689831660169    0.486376210685
 O   -1.039562694880    1.739831660169    1.441376210685
 O   -0.718562694880    0.737831660169   -1.025623789315
 O    1.210437305120    0.515831660169    0.773376210685
 O   -0.767562694880   -0.868168339831    1.078376210685
 C    1.947437305120    1.680831660169    0.396376210685
 H    1.616437305120    2.563831660169    0.972376210685
 H    1.832437305120    1.891831660169   -0.681623789315
 H    3.007437305120    1.478831660169    0.616376210685
 C   -2.158562694880   -1.191168339831    1.028376210685
 H   -2.536562694880   -1.164168339831   -0.009623789315
 H   -2.751562694880   -0.492168339831    1.644376210685
 H   -2.268562694880   -2.211168339831    1.428376210685
 K    0.993164868984   -1.625107814308   -1.858955617774
