14

 P   -0.440414066206    0.809540718304    0.633561111352
 O   -1.027414066206    1.859540718304    1.588561111352
 O   -0.706414066206    0.857540718304   -0.878438888648
 O    1.222585933794    0.635540718304    0.920561111352
 O   -0.755414066206   -0.748459281696    1.225561111352
 C    1.959585933794    1.800540718304    0.543561111352
 H    1.628585933794    2.683540718304    1.119561111352
 H    1.844585933794    2.011540718304   -0.534438888648
 H    3.019585933794    1.598540718304    0.763561111352
 C   -2.146414066206   -1.071459281696    1.175561111352
 H   -2.524414066206   -1.044459281696    0.137561111352
 H   -2.739414066206   -0.372459281696    1.791561111352
 H   -2.256414066206   -2.091459281696    1.575561111352
 K    0.954190571508   -2.009149220756   -2.331142912039
