14

 P   -0.435858330453    0.854431615105    0.688755449102
 O   -1.022858330453    1.904431615105    1.643755449102
 O   -0.701858330453    0.902431615105   -0.823244550898
 O    1.227141669547    0.680431615105    0.975755449102
 O   -0.750858330453   -0.703568384895    1.280755449102
 C    1.964141669547    1.845431615105    0.598755449102
 H    1.633141669547    2.728431615105    1.174755449102
 H    1.849141669547    2.056431615105   -0.479244550898
 H    3.024141669547    1.643431615105    0.818755449102
 C   -2.141858330453   -1.026568384895    1.230755449102
 H   -2.519858330453   -0.999568384895    0.192755449102
 H   -2.734858330453   -0.327568384895    1.846755449102
 H   -2.251858330453   -2.046568384895    1.630755449102
 K    0.939575209954   -2.153164748174   -2.508213147389
