14

 P   -0.429784016116    0.914286144172    0.762347899435
 O   -1.016784016116    1.964286144172    1.717347899435
 O   -0.695784016116    0.962286144172   -0.749652100565
 O    1.233215983884    0.740286144172    1.049347899435
 O   -0.744784016116   -0.643713855828    1.354347899435
 C    1.970215983884    1.905286144172    0.672347899435
 H    1.639215983884    2.788286144172    1.248347899435
 H    1.855215983884    2.116286144172   -0.405652100565
 H    3.030215983884    1.703286144172    0.892347899435
 C   -2.135784016116   -0.966713855828    1.304347899435
 H   -2.513784016116   -0.939713855828    0.266347899435
 H   -2.728784016116   -0.267713855828    1.920347899435
 H   -2.245784016116   -1.986713855828    1.704347899435
 K    0.920088061217   -2.345185451398   -2.744306794521
