14

 P   -0.428265437532    0.929249776439    0.780746012018
 O   -1.015265437532    1.979249776439    1.735746012018
 O   -0.694265437532    0.977249776439   -0.731253987982
 O    1.234734562468    0.755249776439    1.067746012018
 O   -0.743265437532   -0.628750223561    1.372746012018
 C    1.971734562468    1.920249776439    0.690746012018
 H    1.640734562468    2.803249776439    1.266746012018
 H    1.856734562468    2.131249776439   -0.387253987982
 H    3.031734562468    1.718249776439    0.910746012018
 C   -2.134265437532   -0.951750223561    1.322746012018
 H   -2.512265437532   -0.924750223561    0.284746012018
 H   -2.727265437532   -0.252750223561    1.938746012018
 H   -2.244265437532   -1.971750223561    1.722746012018
 K    0.915216274032   -2.393190627204   -2.803330206304
