14

 P   -0.426746858948    0.944213408706    0.799144124602
 O   -1.013746858948    1.994213408706    1.754144124602
 O   -0.692746858948    0.992213408706   -0.712855875398
 O    1.236253141052    0.770213408706    1.086144124602
 O   -0.741746858948   -0.613786591294    1.391144124602
 C    1.973253141052    1.935213408706    0.709144124602
 H    1.642253141052    2.818213408706    1.285144124602
 H    1.858253141052    2.146213408706   -0.368855875398
 H    3.033253141052    1.733213408706    0.929144124602
 C   -2.132746858948   -0.936786591294    1.341144124602
 H   -2.510746858948   -0.909786591294    0.303144124602
 H   -2.725746858948   -0.237786591294    1.957144124602
 H   -2.242746858948   -1.956786591294    1.741144124602
 K    0.910344486848   -2.441195803010   -2.862353618087
