14

 P   -0.425228280364    0.959177040973    0.817542237185
 O   -1.012228280364    2.009177040973    1.772542237185
 O   -0.691228280364    1.007177040973   -0.694457762815
 O    1.237771719636    0.785177040973    1.104542237185
 O   -0.740228280364   -0.598822959027    1.409542237185
 C    1.974771719636    1.950177040973    0.727542237185
 H    1.643771719636    2.833177040973    1.303542237185
 H    1.859771719636    2.161177040973   -0.350457762815
 H    3.034771719636    1.748177040973    0.947542237185
 C   -2.131228280364   -0.921822959027    1.359542237185
 H   -2.509228280364   -0.894822959027    0.321542237185
 H   -2.724228280364   -0.222822959027    1.975542237185
 H   -2.241228280364   -1.941822959027    1.759542237185
 K    0.905472699663   -2.489200978816   -2.921377029870
