14

 P   -0.423709701779    0.974140673240    0.835940349768
 O   -1.010709701779    2.024140673240    1.790940349768
 O   -0.689709701779    1.022140673240   -0.676059650232
 O    1.239290298221    0.800140673240    1.122940349768
 O   -0.738709701779   -0.583859326760    1.427940349768
 C    1.976290298221    1.965140673240    0.745940349768
 H    1.645290298221    2.848140673240    1.321940349768
 H    1.861290298221    2.176140673240   -0.332059650232
 H    3.036290298221    1.763140673240    0.965940349768
 C   -2.129709701779   -0.906859326760    1.377940349768
 H   -2.507709701779   -0.879859326760    0.339940349768
 H   -2.722709701779   -0.207859326760    1.993940349768
 H   -2.239709701779   -1.926859326760    1.777940349768
 K    0.900600912479   -2.537206154622   -2.980400441654
