14

 P   -0.417635387443    1.033995202307    0.909532800102
 O   -1.004635387443    2.083995202307    1.864532800102
 O   -0.683635387443    1.081995202307   -0.602467199898
 O    1.245364612557    0.859995202307    1.196532800102
 O   -0.732635387443   -0.524004797693    1.501532800102
 C    1.982364612557    2.024995202307    0.819532800102
 H    1.651364612557    2.907995202307    1.395532800102
 H    1.867364612557    2.235995202307   -0.258467199898
 H    3.042364612557    1.822995202307    1.039532800102
 C   -2.123635387443   -0.847004797693    1.451532800102
 H   -2.501635387443   -0.820004797693    0.413532800102
 H   -2.716635387443   -0.148004797693    2.067532800102
 H   -2.233635387443   -1.867004797693    1.851532800102
 K    0.881113763741   -2.729226857846   -3.216494088786
