14

 P   -0.410042494521    1.108813363642    1.001523363018
 O   -0.997042494521    2.158813363642    1.956523363018
 O   -0.676042494521    1.156813363642   -0.510476636982
 O    1.252957505479    0.934813363642    1.288523363018
 O   -0.725042494521   -0.449186636358    1.593523363018
 C    1.989957505479    2.099813363642    0.911523363018
 H    1.658957505479    2.982813363642    1.487523363018
 H    1.874957505479    2.310813363642   -0.166476636982
 H    3.049957505479    1.897813363642    1.131523363018
 C   -2.116042494521   -0.772186636358    1.543523363018
 H   -2.494042494521   -0.745186636358    0.505523363018
 H   -2.709042494521   -0.073186636358    2.159523363018
 H   -2.226042494521   -1.792186636358    1.943523363018
 K    0.856754827818   -2.969252736876   -3.511611147702
