14

 P   -0.408523915937    1.123776995909    1.019921475601
 O   -0.995523915937    2.173776995909    1.974921475601
 O   -0.674523915937    1.171776995909   -0.492078524399
 O    1.254476084063    0.949776995909    1.306921475601
 O   -0.723523915937   -0.434223004091    1.611921475601
 C    1.991476084063    2.114776995909    0.929921475601
 H    1.660476084063    2.997776995909    1.505921475601
 H    1.876476084063    2.325776995909   -0.148078524399
 H    3.051476084063    1.912776995909    1.149921475601
 C   -2.114523915937   -0.757223004091    1.561921475601
 H   -2.492523915937   -0.730223004091    0.523921475601
 H   -2.707523915937   -0.058223004091    2.177921475601
 H   -2.224523915937   -1.777223004091    1.961921475601
 K    0.851883040634   -3.017257912682   -3.570634559485
