14

 P   -0.405486758769    1.153704260442    1.056717700768
 O   -0.992486758769    2.203704260442    2.011717700768
 O   -0.671486758769    1.201704260442   -0.455282299232
 O    1.257513241231    0.979704260442    1.343717700768
 O   -0.720486758769   -0.404295739558    1.648717700768
 C    1.994513241231    2.144704260442    0.966717700768
 H    1.663513241231    3.027704260442    1.542717700768
 H    1.879513241231    2.355704260442   -0.111282299232
 H    3.054513241231    1.942704260442    1.186717700768
 C   -2.111486758769   -0.727295739558    1.598717700768
 H   -2.489486758769   -0.700295739558    0.560717700768
 H   -2.704486758769   -0.028295739558    2.214717700768
 H   -2.221486758769   -1.747295739558    1.998717700768
 K    0.842139466265   -3.113268264294   -3.688681383051
