14

 P   -0.403968180184    1.168667892709    1.075115813351
 O   -0.990968180184    2.218667892709    2.030115813351
 O   -0.669968180184    1.216667892709   -0.436884186649
 O    1.259031819816    0.994667892709    1.362115813351
 O   -0.718968180184   -0.389332107291    1.667115813351
 C    1.996031819816    2.159667892709    0.985115813351
 H    1.665031819816    3.042667892709    1.561115813351
 H    1.881031819816    2.370667892709   -0.092884186649
 H    3.056031819816    1.957667892709    1.205115813351
 C   -2.109968180184   -0.712332107291    1.617115813351
 H   -2.487968180184   -0.685332107291    0.579115813351
 H   -2.702968180184   -0.013332107291    2.233115813351
 H   -2.219968180184   -1.732332107291    2.017115813351
 K    0.837267679080   -3.161273440100   -3.747704794834
