14

 P   -0.399412444432    1.213558789510    1.130310151101
 O   -0.986412444432    2.263558789510    2.085310151101
 O   -0.665412444432    1.261558789510   -0.381689848899
 O    1.263587555568    1.039558789510    1.417310151101
 O   -0.714412444432   -0.344441210490    1.722310151101
 C    2.000587555568    2.204558789510    1.040310151101
 H    1.669587555568    3.087558789510    1.616310151101
 H    1.885587555568    2.415558789510   -0.037689848899
 H    3.060587555568    2.002558789510    1.260310151101
 C   -2.105412444432   -0.667441210490    1.672310151101
 H   -2.483412444432   -0.640441210490    0.634310151101
 H   -2.698412444432    0.031558789510    2.288310151101
 H   -2.215412444432   -1.687441210490    2.072310151101
 K    0.822652317527   -3.305288967517   -3.924775030184
