14

 P   -0.393338130095    1.273413318577    1.203902601435
 O   -0.980338130095    2.323413318577    2.158902601435
 O   -0.659338130095    1.321413318577   -0.308097398565
 O    1.269661869905    1.099413318577    1.490902601435
 O   -0.708338130095   -0.284586681423    1.795902601435
 C    2.006661869905    2.264413318577    1.113902601435
 H    1.675661869905    3.147413318577    1.689902601435
 H    1.891661869905    2.475413318577    0.035902601435
 H    3.066661869905    2.062413318577    1.333902601435
 C   -2.099338130095   -0.607586681423    1.745902601435
 H   -2.477338130095   -0.580586681423    0.707902601435
 H   -2.692338130095    0.091413318577    2.361902601435
 H   -2.209338130095   -1.627586681423    2.145902601435
 K    0.803165168789   -3.497309670741   -4.160868677316
