14

 P   -0.391819551511    1.288376950844    1.222300714018
 O   -0.978819551511    2.338376950844    2.177300714018
 O   -0.657819551511    1.336376950844   -0.289699285982
 O    1.271180448489    1.114376950844    1.509300714018
 O   -0.706819551511   -0.269623049156    1.814300714018
 C    2.008180448489    2.279376950844    1.132300714018
 H    1.677180448489    3.162376950844    1.708300714018
 H    1.893180448489    2.490376950844    0.054300714018
 H    3.068180448489    2.077376950844    1.352300714018
 C   -2.097819551511   -0.592623049156    1.764300714018
 H   -2.475819551511   -0.565623049156    0.726300714018
 H   -2.690819551511    0.106376950844    2.380300714018
 H   -2.207819551511   -1.612623049156    2.164300714018
 K    0.798293381604   -3.545314846547   -4.219892089100
