14

 P   -0.388782394342    1.318304215378    1.259096939185
 O   -0.975782394342    2.368304215378    2.214096939185
 O   -0.654782394342    1.366304215378   -0.252903060815
 O    1.274217605658    1.144304215378    1.546096939185
 O   -0.703782394342   -0.239695784622    1.851096939185
 C    2.011217605658    2.309304215378    1.169096939185
 H    1.680217605658    3.192304215378    1.745096939185
 H    1.896217605658    2.520304215378    0.091096939185
 H    3.071217605658    2.107304215378    1.389096939185
 C   -2.094782394342   -0.562695784622    1.801096939185
 H   -2.472782394342   -0.535695784622    0.763096939185
 H   -2.687782394342    0.136304215378    2.417096939185
 H   -2.204782394342   -1.582695784622    2.201096939185
 K    0.788549807235   -3.641325198159   -4.337938912666
