14

 P   -0.382708080005    1.378158744446    1.332689389518
 O   -0.969708080005    2.428158744446    2.287689389518
 O   -0.648708080005    1.426158744446   -0.179310610482
 O    1.280291919995    1.204158744446    1.619689389518
 O   -0.697708080005   -0.179841255554    1.924689389518
 C    2.017291919995    2.369158744446    1.242689389518
 H    1.686291919995    3.252158744446    1.818689389518
 H    1.902291919995    2.580158744446    0.164689389518
 H    3.077291919995    2.167158744446    1.462689389518
 C   -2.088708080005   -0.502841255554    1.874689389518
 H   -2.466708080005   -0.475841255554    0.836689389518
 H   -2.681708080005    0.196158744446    2.490689389518
 H   -2.198708080005   -1.522841255554    2.274689389518
 K    0.769062658497   -3.833345901383   -4.574032559798
