14

 P   -0.379670922837    1.408086008979    1.369485614684
 O   -0.966670922837    2.458086008979    2.324485614684
 O   -0.645670922837    1.456086008979   -0.142514385316
 O    1.283329077163    1.234086008979    1.656485614684
 O   -0.694670922837   -0.149913991021    1.961485614684
 C    2.020329077163    2.399086008979    1.279485614684
 H    1.689329077163    3.282086008979    1.855485614684
 H    1.905329077163    2.610086008979    0.201485614684
 H    3.080329077163    2.197086008979    1.499485614684
 C   -2.085670922837   -0.472913991021    1.911485614684
 H   -2.463670922837   -0.445913991021    0.873485614684
 H   -2.678670922837    0.226086008979    2.527485614684
 H   -2.195670922837   -1.492913991021    2.311485614684
 K    0.759319084128   -3.929356252995   -4.692079383365
