14

 P   -0.378152344252    1.423049641246    1.387883727268
 O   -0.965152344252    2.473049641246    2.342883727268
 O   -0.644152344252    1.471049641246   -0.124116272732
 O    1.284847655748    1.249049641246    1.674883727268
 O   -0.693152344252   -0.134950358754    1.979883727268
 C    2.021847655748    2.414049641246    1.297883727268
 H    1.690847655748    3.297049641246    1.873883727268
 H    1.906847655748    2.625049641246    0.219883727268
 H    3.081847655748    2.212049641246    1.517883727268
 C   -2.084152344252   -0.457950358754    1.929883727268
 H   -2.462152344252   -0.430950358754    0.891883727268
 H   -2.677152344252    0.241049641246    2.545883727268
 H   -2.194152344252   -1.477950358754    2.329883727268
 K    0.754447296944   -3.977361428801   -4.751102795148
