14

 P   -0.375115187084    1.452976905780    1.424679952434
 O   -0.962115187084    2.502976905780    2.379679952434
 O   -0.641115187084    1.500976905780   -0.087320047566
 O    1.287884812916    1.278976905780    1.711679952434
 O   -0.690115187084   -0.105023094220    2.016679952434
 C    2.024884812916    2.443976905780    1.334679952434
 H    1.693884812916    3.326976905780    1.910679952434
 H    1.909884812916    2.654976905780    0.256679952434
 H    3.084884812916    2.241976905780    1.554679952434
 C   -2.081115187084   -0.428023094220    1.966679952434
 H   -2.459115187084   -0.401023094220    0.928679952434
 H   -2.674115187084    0.270976905780    2.582679952434
 H   -2.191115187084   -1.448023094220    2.366679952434
 K    0.744703722575   -4.073371780413   -4.869149618714
