14

 P   -0.373596608500    1.467940538047    1.443078065018
 O   -0.960596608500    2.517940538047    2.398078065018
 O   -0.639596608500    1.515940538047   -0.068921934982
 O    1.289403391500    1.293940538047    1.730078065018
 O   -0.688596608500   -0.090059461953    2.035078065018
 C    2.026403391500    2.458940538047    1.353078065018
 H    1.695403391500    3.341940538047    1.929078065018
 H    1.911403391500    2.669940538047    0.275078065018
 H    3.086403391500    2.256940538047    1.573078065018
 C   -2.079596608500   -0.413059461953    1.985078065018
 H   -2.457596608500   -0.386059461953    0.947078065018
 H   -2.672596608500    0.285940538047    2.601078065018
 H   -2.189596608500   -1.433059461953    2.385078065018
 K    0.739831935391   -4.121376956219   -4.928173030497
