14

 P   -0.369040872747    1.512831434848    1.498272402768
 O   -0.956040872747    2.562831434848    2.453272402768
 O   -0.635040872747    1.560831434848   -0.013727597232
 O    1.293959127253    1.338831434848    1.785272402768
 O   -0.684040872747   -0.045168565152    2.090272402768
 C    2.030959127253    2.503831434848    1.408272402768
 H    1.699959127253    3.386831434848    1.984272402768
 H    1.915959127253    2.714831434848    0.330272402768
 H    3.090959127253    2.301831434848    1.628272402768
 C   -2.075040872747   -0.368168565152    2.040272402768
 H   -2.453040872747   -0.341168565152    1.002272402768
 H   -2.668040872747    0.330831434848    2.656272402768
 H   -2.185040872747   -1.388168565152    2.440272402768
 K    0.725216573837   -4.265392483637   -5.105243265847
