14

 P   -0.361447979826    1.587649596182    1.590262965684
 O   -0.948447979826    2.637649596182    2.545262965684
 O   -0.627447979826    1.635649596182    0.078262965684
 O    1.301552020174    1.413649596182    1.877262965684
 O   -0.676447979826    0.029649596182    2.182262965684
 C    2.038552020174    2.578649596182    1.500262965684
 H    1.707552020174    3.461649596182    2.076262965684
 H    1.923552020174    2.789649596182    0.422262965684
 H    3.098552020174    2.376649596182    1.720262965684
 C   -2.067447979826   -0.293350403818    2.132262965684
 H   -2.445447979826   -0.266350403818    1.094262965684
 H   -2.660447979826    0.405649596182    2.748262965684
 H   -2.177447979826   -1.313350403818    2.532262965684
 K    0.700857637915   -4.505418362667   -5.400360324762
