14

 P   -0.359929401242    1.602613228449    1.608661078268
 O   -0.946929401242    2.652613228449    2.563661078268
 O   -0.625929401242    1.650613228449    0.096661078268
 O    1.303070598758    1.428613228449    1.895661078268
 O   -0.674929401242    0.044613228449    2.200661078268
 C    2.040070598758    2.593613228449    1.518661078268
 H    1.709070598758    3.476613228449    2.094661078268
 H    1.925070598758    2.804613228449    0.440661078268
 H    3.100070598758    2.391613228449    1.738661078268
 C   -2.065929401242   -0.278386771551    2.150661078268
 H   -2.443929401242   -0.251386771551    1.112661078268
 H   -2.658929401242    0.420613228449    2.766661078268
 H   -2.175929401242   -1.298386771551    2.550661078268
 K    0.695985850730   -4.553423538473   -5.459383736545
