14

 P   -0.356892244073    1.632540492983    1.645457303434
 O   -0.943892244073    2.682540492983    2.600457303434
 O   -0.622892244073    1.680540492983    0.133457303434
 O    1.306107755927    1.458540492983    1.932457303434
 O   -0.671892244073    0.074540492983    2.237457303434
 C    2.043107755927    2.623540492983    1.555457303434
 H    1.712107755927    3.506540492983    2.131457303434
 H    1.928107755927    2.834540492983    0.477457303434
 H    3.103107755927    2.421540492983    1.775457303434
 C   -2.062892244073   -0.248459507017    2.187457303434
 H   -2.440892244073   -0.221459507017    1.149457303434
 H   -2.655892244073    0.450540492983    2.803457303434
 H   -2.172892244073   -1.268459507017    2.587457303434
 K    0.686242276361   -4.649433890085   -5.577430560112
