12

 C   -2.520015657799    0.906208526829    0.000000000000
 C   -1.407673657799   -0.113269473171    0.000000000000
 O   -1.912004657799   -1.379722473171    0.000000000000
 C   -0.897538657799   -2.413461473171    0.000000000000
 O   -0.210033657799    0.131223526829    0.000000000000
 H   -2.087445657799    1.913218526829    0.000000000000
 H   -3.152352657799    0.763636526829    0.888615000000
 H   -3.152352657799    0.763636526829   -0.888615000000
 H   -1.451635657799   -3.358585473171    0.000000000000
 H   -0.267743657799   -2.327162473171    0.896190000000
 H   -0.267743657799   -2.327162473171   -0.896190000000
CS    0.769758109609    0.331243757105    0.000000000000
