12

 C   -2.708792496821    0.867670555733    0.000000000000
 C   -1.596450496821   -0.151807444267    0.000000000000
 O   -2.100781496821   -1.418260444267    0.000000000000
 C   -1.086315496821   -2.451999444267    0.000000000000
 O   -0.398810496821    0.092685555733    0.000000000000
 H   -2.276222496821    1.874680555733    0.000000000000
 H   -3.341129496821    0.725098555733    0.888615000000
 H   -3.341129496821    0.725098555733   -0.888615000000
 H   -1.640412496821   -3.397123444267    0.000000000000
 H   -0.456520496821   -2.365700444267    0.896190000000
 H   -0.456520496821   -2.365700444267   -0.896190000000
CS    0.874918800810    0.352711855093    0.000000000000
