12

 C   -3.023420561856    0.803440603907    0.000000000000
 C   -1.911078561856   -0.216037396093    0.000000000000
 O   -2.415409561856   -1.482490396093    0.000000000000
 C   -1.400943561856   -2.516229396093    0.000000000000
 O   -0.713438561856    0.028455603907    0.000000000000
 H   -2.590850561856    1.810450603907    0.000000000000
 H   -3.655757561856    0.660868603907    0.888615000000
 H   -3.655757561856    0.660868603907   -0.888615000000
 H   -1.955040561856   -3.461353396093    0.000000000000
 H   -0.771148561856   -2.429930396093    0.896190000000
 H   -0.771148561856   -2.429930396093   -0.896190000000
CS    1.050186619478    0.388492018406    0.000000000000
