12

 C   -8.183320828440   -0.249930606037    0.000000000000
 C   -7.070978828440   -1.269408606037    0.000000000000
 O   -7.575309828440   -2.535861606037    0.000000000000
 C   -6.560843828440   -3.569600606037    0.000000000000
 O   -5.873338828440   -1.024915606037    0.000000000000
 H   -7.750750828440    0.757079393963    0.000000000000
 H   -8.815657828440   -0.392502606037    0.888615000000
 H   -8.815657828440   -0.392502606037   -0.888615000000
 H   -7.114940828440   -4.514724606037    0.000000000000
 H   -5.931048828440   -3.483301606037    0.896190000000
 H   -5.931048828440   -3.483301606037   -0.896190000000
CS    3.924578845637    0.975286696732    0.000000000000
