12

 C   -3.212197400878    0.764902632812    0.000000000000
 C   -2.099855400878   -0.254575367188    0.000000000000
 O   -2.604186400878   -1.521028367188    0.000000000000
 C   -1.589720400878   -2.554767367188    0.000000000000
 O   -0.902215400878   -0.010082367188    0.000000000000
 H   -2.779627400878    1.771912632812    0.000000000000
 H   -3.844534400878    0.622330632812    0.888615000000
 H   -3.844534400878    0.622330632812   -0.888615000000
 H   -2.143817400878   -3.499891367188    0.000000000000
 H   -0.959925400878   -2.468468367188    0.896190000000
 H   -0.959925400878   -2.468468367188   -0.896190000000
CS    1.155347310679    0.409960116393    0.000000000000
