12

 C   -3.338048626892    0.739210652081    0.000000000000
 C   -2.225706626892   -0.280267347919    0.000000000000
 O   -2.730037626892   -1.546720347919    0.000000000000
 C   -1.715571626892   -2.580459347919    0.000000000000
 O   -1.028066626892   -0.035774347919    0.000000000000
 H   -2.905478626892    1.746220652081    0.000000000000
 H   -3.970385626892    0.596638652081    0.888615000000
 H   -3.970385626892    0.596638652081   -0.888615000000
 H   -2.269668626892   -3.525583347919    0.000000000000
 H   -1.085776626892   -2.494160347919    0.896190000000
 H   -1.085776626892   -2.494160347919   -0.896190000000
CS    1.225454438146    0.424272181718    0.000000000000
