12

 C   -3.652676691927    0.674980700255    0.000000000000
 C   -2.540334691927   -0.344497299745    0.000000000000
 O   -3.044665691927   -1.610950299745    0.000000000000
 C   -2.030199691927   -2.644689299745    0.000000000000
 O   -1.342694691927   -0.100004299745    0.000000000000
 H   -3.220106691927    1.681990700255    0.000000000000
 H   -4.285013691927    0.532408700255    0.888615000000
 H   -4.285013691927    0.532408700255   -0.888615000000
 H   -2.584296691927   -3.589813299745    0.000000000000
 H   -1.400404691927   -2.558390299745    0.896190000000
 H   -1.400404691927   -2.558390299745   -0.896190000000
CS    1.400722256814    0.460052345031    0.000000000000
