12

 C   -3.715602304935    0.662134709890    0.000000000000
 C   -2.603260304935   -0.357343290110    0.000000000000
 O   -3.107591304935   -1.623796290110    0.000000000000
 C   -2.093125304935   -2.657535290110    0.000000000000
 O   -1.405620304935   -0.112850290110    0.000000000000
 H   -3.283032304935    1.669144709890    0.000000000000
 H   -4.347939304935    0.519562709890    0.888615000000
 H   -4.347939304935    0.519562709890   -0.888615000000
 H   -2.647222304935   -3.602659290110    0.000000000000
 H   -1.463330304935   -2.571236290110    0.896190000000
 H   -1.463330304935   -2.571236290110   -0.896190000000
CS    1.435775820548    0.467208377693    0.000000000000
