12

 C   -3.904379143956    0.623596738795    0.000000000000
 C   -2.792037143956   -0.395881261205    0.000000000000
 O   -3.296368143956   -1.662334261205    0.000000000000
 C   -2.281902143956   -2.696073261205    0.000000000000
 O   -1.594397143956   -0.151388261205    0.000000000000
 H   -3.471809143956    1.630606738795    0.000000000000
 H   -4.536716143956    0.481024738795    0.888615000000
 H   -4.536716143956    0.481024738795   -0.888615000000
 H   -2.835999143956   -3.641197261205    0.000000000000
 H   -1.652107143956   -2.609774261205    0.896190000000
 H   -1.652107143956   -2.609774261205   -0.896190000000
CS    1.540936511749    0.488676475681    0.000000000000
