12

 C   -4.093155982977    0.585058767699    0.000000000000
 C   -2.980813982977   -0.434419232301    0.000000000000
 O   -3.485144982977   -1.700872232301    0.000000000000
 C   -2.470678982977   -2.734611232301    0.000000000000
 O   -1.783173982977   -0.189926232301    0.000000000000
 H   -3.660585982977    1.592068767699    0.000000000000
 H   -4.725492982977    0.442486767699    0.888615000000
 H   -4.725492982977    0.442486767699   -0.888615000000
 H   -3.024775982977   -3.679735232301    0.000000000000
 H   -1.840883982977   -2.648312232301    0.896190000000
 H   -1.840883982977   -2.648312232301   -0.896190000000
CS    1.646097202950    0.510144573668    0.000000000000
