12

 C   -4.156081595984    0.572212777334    0.000000000000
 C   -3.043739595984   -0.447265222666    0.000000000000
 O   -3.548070595984   -1.713718222666    0.000000000000
 C   -2.533604595984   -2.747457222666    0.000000000000
 O   -1.846099595984   -0.202772222666    0.000000000000
 H   -3.723511595984    1.579222777334    0.000000000000
 H   -4.788418595984    0.429640777334    0.888615000000
 H   -4.788418595984    0.429640777334   -0.888615000000
 H   -3.087701595984   -3.692581222666    0.000000000000
 H   -1.903809595984   -2.661158222666    0.896190000000
 H   -1.903809595984   -2.661158222666   -0.896190000000
CS    1.681150766683    0.517300606331    0.000000000000
