12

 C   -4.219007208991    0.559366786969    0.000000000000
 C   -3.106665208991   -0.460111213031    0.000000000000
 O   -3.610996208991   -1.726564213031    0.000000000000
 C   -2.596530208991   -2.760303213031    0.000000000000
 O   -1.909025208991   -0.215618213031    0.000000000000
 H   -3.786437208991    1.566376786969    0.000000000000
 H   -4.851344208991    0.416794786969    0.888615000000
 H   -4.851344208991    0.416794786969   -0.888615000000
 H   -3.150627208991   -3.705427213031    0.000000000000
 H   -1.966735208991   -2.674004213031    0.896190000000
 H   -1.966735208991   -2.674004213031   -0.896190000000
CS    1.716204330417    0.524456638993    0.000000000000
