12

 C   -4.344858435006    0.533674806238    0.000000000000
 C   -3.232516435006   -0.485803193762    0.000000000000
 O   -3.736847435006   -1.752256193762    0.000000000000
 C   -2.722381435006   -2.785995193762    0.000000000000
 O   -2.034876435006   -0.241310193762    0.000000000000
 H   -3.912288435006    1.540684806238    0.000000000000
 H   -4.977195435006    0.391102806238    0.888615000000
 H   -4.977195435006    0.391102806238   -0.888615000000
 H   -3.276478435006   -3.731119193762    0.000000000000
 H   -2.092586435006   -2.699696193762    0.896190000000
 H   -2.092586435006   -2.699696193762   -0.896190000000
CS    1.786311457884    0.538768704318    0.000000000000
