12

 C   -4.407784048013    0.520828815873    0.000000000000
 C   -3.295442048013   -0.498649184127    0.000000000000
 O   -3.799773048013   -1.765102184127    0.000000000000
 C   -2.785307048013   -2.798841184127    0.000000000000
 O   -2.097802048013   -0.254156184127    0.000000000000
 H   -3.975214048013    1.527838815873    0.000000000000
 H   -5.040121048013    0.378256815873    0.888615000000
 H   -5.040121048013    0.378256815873   -0.888615000000
 H   -3.339404048013   -3.743965184127    0.000000000000
 H   -2.155512048013   -2.712542184127    0.896190000000
 H   -2.155512048013   -2.712542184127   -0.896190000000
CS    1.821365021618    0.545924736981    0.000000000000
