12

 C   -4.596560887034    0.482290844778    0.000000000000
 C   -3.484218887034   -0.537187155222    0.000000000000
 O   -3.988549887034   -1.803640155222    0.000000000000
 C   -2.974083887034   -2.837379155222    0.000000000000
 O   -2.286578887034   -0.292694155222    0.000000000000
 H   -4.163990887034    1.489300844778    0.000000000000
 H   -5.228897887034    0.339718844778    0.888615000000
 H   -5.228897887034    0.339718844778   -0.888615000000
 H   -3.528180887034   -3.782503155222    0.000000000000
 H   -2.344288887034   -2.751080155222    0.896190000000
 H   -2.344288887034   -2.751080155222   -0.896190000000
CS    1.926525712819    0.567392834968    0.000000000000
