12

 C   -4.659486500041    0.469444854413    0.000000000000
 C   -3.547144500041   -0.550033145587    0.000000000000
 O   -4.051475500041   -1.816486145587    0.000000000000
 C   -3.037009500041   -2.850225145587    0.000000000000
 O   -2.349504500041   -0.305540145587    0.000000000000
 H   -4.226916500041    1.476454854413    0.000000000000
 H   -5.291823500041    0.326872854413    0.888615000000
 H   -5.291823500041    0.326872854413   -0.888615000000
 H   -3.591106500041   -3.795349145587    0.000000000000
 H   -2.407214500041   -2.763926145587    0.896190000000
 H   -2.407214500041   -2.763926145587   -0.896190000000
CS    1.961579276553    0.574548867631    0.000000000000
