12

 C   -4.722412113048    0.456598864047    0.000000000000
 C   -3.610070113048   -0.562879135953    0.000000000000
 O   -4.114401113048   -1.829332135953    0.000000000000
 C   -3.099935113048   -2.863071135953    0.000000000000
 O   -2.412430113048   -0.318386135953    0.000000000000
 H   -4.289842113048    1.463608864047    0.000000000000
 H   -5.354749113048    0.314026864047    0.888615000000
 H   -5.354749113048    0.314026864047   -0.888615000000
 H   -3.654032113048   -3.808195135953    0.000000000000
 H   -2.470140113048   -2.776772135953    0.896190000000
 H   -2.470140113048   -2.776772135953   -0.896190000000
CS    1.996632840286    0.581704900293    0.000000000000
