12

 C   -4.785337726056    0.443752873682    0.000000000000
 C   -3.672995726056   -0.575725126318    0.000000000000
 O   -4.177326726056   -1.842178126318    0.000000000000
 C   -3.162860726056   -2.875917126318    0.000000000000
 O   -2.475355726056   -0.331232126318    0.000000000000
 H   -4.352767726056    1.450762873682    0.000000000000
 H   -5.417674726056    0.301180873682    0.888615000000
 H   -5.417674726056    0.301180873682   -0.888615000000
 H   -3.716957726056   -3.821041126318    0.000000000000
 H   -2.533065726056   -2.789618126318    0.896190000000
 H   -2.533065726056   -2.789618126318   -0.896190000000
CS    2.031686404020    0.588860932956    0.000000000000
