12

 C   -5.162891404098    0.366676931491    0.000000000000
 C   -4.050549404098   -0.652801068509    0.000000000000
 O   -4.554880404098   -1.919254068509    0.000000000000
 C   -3.540414404098   -2.952993068509    0.000000000000
 O   -2.852909404098   -0.408308068509    0.000000000000
 H   -4.730321404098    1.373686931491    0.000000000000
 H   -5.795228404098    0.224104931491    0.888615000000
 H   -5.795228404098    0.224104931491   -0.888615000000
 H   -4.094511404098   -3.898117068509    0.000000000000
 H   -2.910619404098   -2.866694068509    0.896190000000
 H   -2.910619404098   -2.866694068509   -0.896190000000
CS    2.242007786422    0.631797128931    0.000000000000
