12

 C   -5.225817017105    0.353830941126    0.000000000000
 C   -4.113475017105   -0.665647058874    0.000000000000
 O   -4.617806017105   -1.932100058874    0.000000000000
 C   -3.603340017105   -2.965839058874    0.000000000000
 O   -2.915835017105   -0.421154058874    0.000000000000
 H   -4.793247017105    1.360840941126    0.000000000000
 H   -5.858154017105    0.211258941126    0.888615000000
 H   -5.858154017105    0.211258941126   -0.888615000000
 H   -4.157437017105   -3.910963058874    0.000000000000
 H   -2.973545017105   -2.879540058874    0.896190000000
 H   -2.973545017105   -2.879540058874   -0.896190000000
CS    2.277061350156    0.638953161593    0.000000000000
