12

 C   -5.414593856127    0.315292970030    0.000000000000
 C   -4.302251856127   -0.704185029970    0.000000000000
 O   -4.806582856127   -1.970638029970    0.000000000000
 C   -3.792116856127   -3.004377029970    0.000000000000
 O   -3.104611856127   -0.459692029970    0.000000000000
 H   -4.982023856127    1.322302970030    0.000000000000
 H   -6.046930856127    0.172720970030    0.888615000000
 H   -6.046930856127    0.172720970030   -0.888615000000
 H   -4.346213856127   -3.949501029970    0.000000000000
 H   -3.162321856127   -2.918078029970    0.896190000000
 H   -3.162321856127   -2.918078029970   -0.896190000000
CS    2.382222041356    0.660421259581    0.000000000000
