12

 C   -5.477519469134    0.302446979665    0.000000000000
 C   -4.365177469134   -0.717031020335    0.000000000000
 O   -4.869508469134   -1.983484020335    0.000000000000
 C   -3.855042469134   -3.017223020335    0.000000000000
 O   -3.167537469134   -0.472538020335    0.000000000000
 H   -5.044949469134    1.309456979665    0.000000000000
 H   -6.109856469134    0.159874979665    0.888615000000
 H   -6.109856469134    0.159874979665   -0.888615000000
 H   -4.409139469134   -3.962347020335    0.000000000000
 H   -3.225247469134   -2.930924020335    0.896190000000
 H   -3.225247469134   -2.930924020335   -0.896190000000
CS    2.417275605090    0.667577292244    0.000000000000
