12

 C   -5.792147534170    0.238217027839    0.000000000000
 C   -4.679805534170   -0.781260972161    0.000000000000
 O   -5.184136534170   -2.047713972161    0.000000000000
 C   -4.169670534170   -3.081452972161    0.000000000000
 O   -3.482165534170   -0.536767972161    0.000000000000
 H   -5.359577534170    1.245227027839    0.000000000000
 H   -6.424484534170    0.095645027839    0.888615000000
 H   -6.424484534170    0.095645027839   -0.888615000000
 H   -4.723767534170   -4.026576972161    0.000000000000
 H   -3.539875534170   -2.995153972161    0.896190000000
 H   -3.539875534170   -2.995153972161   -0.896190000000
CS    2.592543423758    0.703357455556    0.000000000000
