12

 C   -5.855073147177    0.225371037474    0.000000000000
 C   -4.742731147177   -0.794106962526    0.000000000000
 O   -5.247062147177   -2.060559962526    0.000000000000
 C   -4.232596147177   -3.094298962526    0.000000000000
 O   -3.545091147177   -0.549613962526    0.000000000000
 H   -5.422503147177    1.232381037474    0.000000000000
 H   -6.487410147177    0.082799037474    0.888615000000
 H   -6.487410147177    0.082799037474   -0.888615000000
 H   -4.786693147177   -4.039422962526    0.000000000000
 H   -3.602801147177   -3.007999962526    0.896190000000
 H   -3.602801147177   -3.007999962526   -0.896190000000
CS    2.627596987492    0.710513488219    0.000000000000
