12

 C   -5.980924373191    0.199679056744    0.000000000000
 C   -4.868582373191   -0.819798943256    0.000000000000
 O   -5.372913373191   -2.086251943256    0.000000000000
 C   -4.358447373191   -3.119990943256    0.000000000000
 O   -3.670942373191   -0.575305943256    0.000000000000
 H   -5.548354373191    1.206689056744    0.000000000000
 H   -6.613261373191    0.057107056744    0.888615000000
 H   -6.613261373191    0.057107056744   -0.888615000000
 H   -4.912544373191   -4.065114943256    0.000000000000
 H   -3.728652373191   -3.033691943256    0.896190000000
 H   -3.728652373191   -3.033691943256   -0.896190000000
CS    2.697704114959    0.724825553544    0.000000000000
