12

 C   -6.106775599205    0.173987076013    0.000000000000
 C   -4.994433599205   -0.845490923987    0.000000000000
 O   -5.498764599205   -2.111943923987    0.000000000000
 C   -4.484298599205   -3.145682923987    0.000000000000
 O   -3.796793599205   -0.600997923987    0.000000000000
 H   -5.674205599205    1.180997076013    0.000000000000
 H   -6.739112599205    0.031415076013    0.888615000000
 H   -6.739112599205    0.031415076013   -0.888615000000
 H   -5.038395599205   -4.090806923987    0.000000000000
 H   -3.854503599205   -3.059383923987    0.896190000000
 H   -3.854503599205   -3.059383923987   -0.896190000000
CS    2.767811242427    0.739137618869    0.000000000000
