12

 C   -6.169701212212    0.161141085648    0.000000000000
 C   -5.057359212212   -0.858336914352    0.000000000000
 O   -5.561690212212   -2.124789914352    0.000000000000
 C   -4.547224212212   -3.158528914352    0.000000000000
 O   -3.859719212212   -0.613843914352    0.000000000000
 H   -5.737131212212    1.168151085648    0.000000000000
 H   -6.802038212212    0.018569085648    0.888615000000
 H   -6.802038212212    0.018569085648   -0.888615000000
 H   -5.101321212212   -4.103652914352    0.000000000000
 H   -3.917429212212   -3.072229914352    0.896190000000
 H   -3.917429212212   -3.072229914352   -0.896190000000
CS    2.802864806160    0.746293651531    0.000000000000
