12

 C   -6.295552438227    0.135449104918    0.000000000000
 C   -5.183210438227   -0.884028895082    0.000000000000
 O   -5.687541438227   -2.150481895082    0.000000000000
 C   -4.673075438227   -3.184220895082    0.000000000000
 O   -3.985570438227   -0.639535895082    0.000000000000
 H   -5.862982438227    1.142459104918    0.000000000000
 H   -6.927889438227   -0.007122895082    0.888615000000
 H   -6.927889438227   -0.007122895082   -0.888615000000
 H   -5.227172438227   -4.129344895082    0.000000000000
 H   -4.043280438227   -3.097921895082    0.896190000000
 H   -4.043280438227   -3.097921895082   -0.896190000000
CS    2.872971933628    0.760605716856    0.000000000000
