12

 C   -6.358478051234    0.122603114553    0.000000000000
 C   -5.246136051234   -0.896874885447    0.000000000000
 O   -5.750467051234   -2.163327885447    0.000000000000
 C   -4.736001051234   -3.197066885447    0.000000000000
 O   -4.048496051234   -0.652381885447    0.000000000000
 H   -5.925908051234    1.129613114553    0.000000000000
 H   -6.990815051234   -0.019968885447    0.888615000000
 H   -6.990815051234   -0.019968885447   -0.888615000000
 H   -5.290098051234   -4.142190885447    0.000000000000
 H   -4.106206051234   -3.110767885447    0.896190000000
 H   -4.106206051234   -3.110767885447   -0.896190000000
CS    2.908025497361    0.767761749519    0.000000000000
