12

 C   -6.421403664241    0.109757124188    0.000000000000
 C   -5.309061664241   -0.909720875812    0.000000000000
 O   -5.813392664241   -2.176173875812    0.000000000000
 C   -4.798926664241   -3.209912875812    0.000000000000
 O   -4.111421664241   -0.665227875812    0.000000000000
 H   -5.988833664241    1.116767124188    0.000000000000
 H   -7.053740664241   -0.032814875812    0.888615000000
 H   -7.053740664241   -0.032814875812   -0.888615000000
 H   -5.353023664241   -4.155036875812    0.000000000000
 H   -4.169131664241   -3.123613875812    0.896190000000
 H   -4.169131664241   -3.123613875812   -0.896190000000
CS    2.943079061095    0.774917782181    0.000000000000
