12

 C   -6.547254890255    0.084065143457    0.000000000000
 C   -5.434912890255   -0.935412856543    0.000000000000
 O   -5.939243890255   -2.201865856543    0.000000000000
 C   -4.924777890255   -3.235604856543    0.000000000000
 O   -4.237272890255   -0.690919856543    0.000000000000
 H   -6.114684890255    1.091075143457    0.000000000000
 H   -7.179591890255   -0.058506856543    0.888615000000
 H   -7.179591890255   -0.058506856543   -0.888615000000
 H   -5.478874890255   -4.180728856543    0.000000000000
 H   -4.294982890255   -3.149305856543    0.896190000000
 H   -4.294982890255   -3.149305856543   -0.896190000000
CS    3.013186188562    0.789229847506    0.000000000000
