12

 C   -6.610180503262    0.071219153092    0.000000000000
 C   -5.497838503262   -0.948258846908    0.000000000000
 O   -6.002169503262   -2.214711846908    0.000000000000
 C   -4.987703503262   -3.248450846908    0.000000000000
 O   -4.300198503262   -0.703765846908    0.000000000000
 H   -6.177610503262    1.078229153092    0.000000000000
 H   -7.242517503262   -0.071352846908    0.888615000000
 H   -7.242517503262   -0.071352846908   -0.888615000000
 H   -5.541800503262   -4.193574846908    0.000000000000
 H   -4.357908503262   -3.162151846908    0.896190000000
 H   -4.357908503262   -3.162151846908   -0.896190000000
CS    3.048239752296    0.796385880169    0.000000000000
