12

 C   -6.861882955291    0.019835191631    0.000000000000
 C   -5.749540955291   -0.999642808369    0.000000000000
 O   -6.253871955291   -2.266095808369    0.000000000000
 C   -5.239405955291   -3.299834808369    0.000000000000
 O   -4.551900955291   -0.755149808369    0.000000000000
 H   -6.429312955291    1.026845191631    0.000000000000
 H   -7.494219955291   -0.122736808369    0.888615000000
 H   -7.494219955291   -0.122736808369   -0.888615000000
 H   -5.793502955291   -4.244958808369    0.000000000000
 H   -4.609610955291   -3.213535808369    0.896190000000
 H   -4.609610955291   -3.213535808369   -0.896190000000
CS    3.188454007230    0.825010010819    0.000000000000
