12

 C   -7.176511020326   -0.044394760195    0.000000000000
 C   -6.064169020326   -1.063872760195    0.000000000000
 O   -6.568500020326   -2.330325760195    0.000000000000
 C   -5.554034020326   -3.364064760195    0.000000000000
 O   -4.866529020326   -0.819379760195    0.000000000000
 H   -6.743941020326    0.962615239805    0.000000000000
 H   -7.808848020326   -0.186966760195    0.888615000000
 H   -7.808848020326   -0.186966760195   -0.888615000000
 H   -6.108131020326   -4.309188760195    0.000000000000
 H   -4.924239020326   -3.277765760195    0.896190000000
 H   -4.924239020326   -3.277765760195   -0.896190000000
CS    3.363721825899    0.860790174131    0.000000000000
