12

 C   -7.302362246341   -0.070086740925    0.000000000000
 C   -6.190020246341   -1.089564740925    0.000000000000
 O   -6.694351246341   -2.356017740925    0.000000000000
 C   -5.679885246341   -3.389756740925    0.000000000000
 O   -4.992380246341   -0.845071740925    0.000000000000
 H   -6.869792246341    0.936923259075    0.000000000000
 H   -7.934699246341   -0.212658740925    0.888615000000
 H   -7.934699246341   -0.212658740925   -0.888615000000
 H   -6.233982246341   -4.334880740925    0.000000000000
 H   -5.050090246341   -3.303457740925    0.896190000000
 H   -5.050090246341   -3.303457740925   -0.896190000000
CS    3.433828953366    0.875102239456    0.000000000000
