12

 C   -7.365287859348   -0.082932731290    0.000000000000
 C   -6.252945859348   -1.102410731290    0.000000000000
 O   -6.757276859348   -2.368863731290    0.000000000000
 C   -5.742810859348   -3.402602731290    0.000000000000
 O   -5.055305859348   -0.857917731290    0.000000000000
 H   -6.932717859348    0.924077268710    0.000000000000
 H   -7.997624859348   -0.225504731290    0.888615000000
 H   -7.997624859348   -0.225504731290   -0.888615000000
 H   -6.296907859348   -4.347726731290    0.000000000000
 H   -5.113015859348   -3.316303731290    0.896190000000
 H   -5.113015859348   -3.316303731290   -0.896190000000
CS    3.468882517100    0.882258272119    0.000000000000
