12

 C   -7.805767150398   -0.172854663846    0.000000000000
 C   -6.693425150398   -1.192332663846    0.000000000000
 O   -7.197756150398   -2.458785663846    0.000000000000
 C   -6.183290150398   -3.492524663846    0.000000000000
 O   -5.495785150398   -0.947839663846    0.000000000000
 H   -7.373197150398    0.834155336154    0.000000000000
 H   -8.438104150398   -0.315426663846    0.888615000000
 H   -8.438104150398   -0.315426663846   -0.888615000000
 H   -6.737387150398   -4.437648663846    0.000000000000
 H   -5.553495150398   -3.406225663846    0.896190000000
 H   -5.553495150398   -3.406225663846   -0.896190000000
CS    3.714257463235    0.932350500757    0.000000000000
