12

 C   -7.994543989419   -0.211392634942    0.000000000000
 C   -6.882201989419   -1.230870634942    0.000000000000
 O   -7.386532989419   -2.497323634942    0.000000000000
 C   -6.372066989419   -3.531062634942    0.000000000000
 O   -5.684561989419   -0.986377634942    0.000000000000
 H   -7.561973989419    0.795617365058    0.000000000000
 H   -8.626880989419   -0.353964634942    0.888615000000
 H   -8.626880989419   -0.353964634942   -0.888615000000
 H   -6.926163989419   -4.476186634942    0.000000000000
 H   -5.742271989419   -3.444763634942    0.896190000000
 H   -5.742271989419   -3.444763634942   -0.896190000000
CS    3.819418154436    0.953818598744    0.000000000000
