12

 C   -8.057469602426   -0.224238625307    0.000000000000
 C   -6.945127602426   -1.243716625307    0.000000000000
 O   -7.449458602426   -2.510169625307    0.000000000000
 C   -6.434992602426   -3.543908625307    0.000000000000
 O   -5.747487602426   -0.999223625307    0.000000000000
 H   -7.624899602426    0.782771374693    0.000000000000
 H   -8.689806602426   -0.366810625307    0.888615000000
 H   -8.689806602426   -0.366810625307   -0.888615000000
 H   -6.989089602426   -4.489032625307    0.000000000000
 H   -5.805197602426   -3.457609625307    0.896190000000
 H   -5.805197602426   -3.457609625307   -0.896190000000
CS    3.854471718170    0.960974631407    0.000000000000
