8

 N   -0.121330726017   -0.006392531755    0.414525661596
 H   -0.525979726017    0.812216468245    0.863821661596
 H   -0.525979726017   -0.825001531755    0.863821661596
 C    1.339107273983   -0.006392531755    0.552562661596
 H    1.738210273983   -0.888333531755    0.046173661596
 H    1.707788273983   -0.006392531755    1.588392661596
 H    1.738210273983    0.875548468245    0.046173661596
NA   -0.806222467021    0.008631589186   -0.690326174124
