8

 N   -0.098914504998   -0.006884264967    0.450687001353
 H   -0.503563504998    0.811724735033    0.899983001353
 H   -0.503563504998   -0.825493264967    0.899983001353
 C    1.361523495002   -0.006884264967    0.588724001353
 H    1.760626495002   -0.888825264967    0.082335001353
 H    1.730204495002   -0.006884264967    1.624554001353
 H    1.760626495002    0.875056735033    0.082335001353
NA   -0.836490226079    0.009295557585   -0.739153437115
