8

 N   -0.076498283978   -0.007375998179    0.486848341110
 H   -0.481147283978    0.811233001821    0.936144341110
 H   -0.481147283978   -0.825984998179    0.936144341110
 C    1.383939716022   -0.007375998179    0.624885341110
 H    1.783042716022   -0.889316998179    0.118496341110
 H    1.752620716022   -0.007375998179    1.660715341110
 H    1.783042716022    0.874565001821    0.118496341110
NA   -0.866757985137    0.009959525984   -0.787980700105
