8

 N    0.013166600099   -0.009342931027    0.631493700138
 H   -0.391482399901    0.809266068973    1.080789700138
 H   -0.391482399901   -0.827951931027    1.080789700138
 C    1.473604600099   -0.009342931027    0.769530700138
 H    1.872707600099   -0.891283931027    0.263141700138
 H    1.842285600099   -0.009342931027    1.805360700138
 H    1.872707600099    0.872598068973    0.263141700138
NA   -0.987829021369    0.012615399579   -0.983289752068
