8

 N    0.035582821119   -0.009834664239    0.667655039895
 H   -0.369066178881    0.808774335761    1.116951039895
 H   -0.369066178881   -0.828443664239    1.116951039895
 C    1.496020821119   -0.009834664239    0.805692039895
 H    1.895123821119   -0.891775664239    0.299303039895
 H    1.864701821119   -0.009834664239    1.841522039895
 H    1.895123821119    0.872106335761    0.299303039895
NA   -1.018096780427    0.013279367978   -1.032117015059
