8

 N    0.080415263158   -0.010818130663    0.739977719408
 H   -0.324233736842    0.807790869337    1.189273719408
 H   -0.324233736842   -0.829427130663    1.189273719408
 C    1.540853263158   -0.010818130663    0.878014719408
 H    1.939956263158   -0.892759130663    0.371625719408
 H    1.909534263158   -0.010818130663    1.913844719408
 H    1.939956263158    0.871122869337    0.371625719408
NA   -1.078632298542    0.014607304776   -1.129771541041
