8

 N    0.102831484177   -0.011309863875    0.776139059165
 H   -0.301817515823    0.807299136125    1.225435059165
 H   -0.301817515823   -0.829918863875    1.225435059165
 C    1.563269484177   -0.011309863875    0.914176059165
 H    1.962372484177   -0.893250863875    0.407787059165
 H    1.931950484177   -0.011309863875    1.950006059165
 H    1.962372484177    0.870631136125    0.407787059165
NA   -1.108900057600    0.015271273175   -1.178598804031
