8

 N    0.282161252332   -0.015243729570    1.065429777221
 H   -0.122487747668    0.803365270430    1.514725777221
 H   -0.122487747668   -0.833852729570    1.514725777221
 C    1.742599252332   -0.015243729570    1.203466777221
 H    2.141702252332   -0.897184729570    0.697077777221
 H    2.111280252332   -0.015243729570    2.239296777221
 H    2.141702252332    0.866697270430    0.697077777221
NA   -1.351042130063    0.020583020366   -1.569216907957
