8

 N    0.349409915390   -0.016718929206    1.173913796492
 H   -0.055239084610    0.801890070794    1.623209796492
 H   -0.055239084610   -0.835327929206    1.623209796492
 C    1.809847915390   -0.016718929206    1.311950796492
 H    2.208950915390   -0.898659929206    0.805561796492
 H    2.178528915390   -0.016718929206    2.347780796492
 H    2.208950915390    0.865222070794    0.805561796492
NA   -1.441845407237    0.022574925563   -1.715698696930
