8

 N    0.708069451701   -0.024586660597    1.752495232603
 H    0.303420451701    0.794022339403    2.201791232603
 H    0.303420451701   -0.843195660597    2.201791232603
 C    2.168507451701   -0.024586660597    1.890532232603
 H    2.567610451701   -0.906527660597    1.384143232603
 H    2.537188451701   -0.024586660597    2.926362232603
 H    2.567610451701    0.857354339403    1.384143232603
NA   -1.926129552163    0.033198419946   -2.496934904782
