8

 N    0.820150556798   -0.027045326657    1.933301931387
 H    0.415501556798    0.791563673343    2.382597931387
 H    0.415501556798   -0.845654326657    2.382597931387
 C    2.280588556798   -0.027045326657    2.071338931387
 H    2.679691556798   -0.908986326657    1.564949931387
 H    2.649269556798   -0.027045326657    3.107168931387
 H    2.679691556798    0.854895673343    1.564949931387
NA   -2.077468347452    0.036518261941   -2.741071219736
