8

 N    0.977064103933   -0.030487459141    2.186431309686
 H    0.572415103933    0.788121540859    2.635727309686
 H    0.572415103933   -0.849096459141    2.635727309686
 C    2.437502103933   -0.030487459141    2.324468309686
 H    2.836605103933   -0.912428459141    1.818079309686
 H    2.806183103933   -0.030487459141    3.360298309686
 H    2.836605103933    0.851453540859    1.818079309686
NA   -2.289342660857    0.041166040733   -3.082862060671
