8

 N    1.111561430050   -0.033437858413    2.403399348227
 H    0.706912430050    0.785171141587    2.852695348227
 H    0.706912430050   -0.852046858413    2.852695348227
 C    2.571999430050   -0.033437858413    2.541436348227
 H    2.971102430050   -0.915378858413    2.035047348227
 H    2.940680430050   -0.033437858413    3.577266348227
 H    2.971102430050    0.848503141587    2.035047348227
NA   -2.470949215205    0.045149851126   -3.375825638615
