8

 N    1.133977651069   -0.033929591625    2.439560687984
 H    0.729328651069    0.784679408375    2.888856687984
 H    0.729328651069   -0.852538591625    2.888856687984
 C    2.594415651069   -0.033929591625    2.577597687984
 H    2.993518651069   -0.915870591625    2.071208687984
 H    2.963096651069   -0.033929591625    3.613427687984
 H    2.993518651069    0.848011408375    2.071208687984
NA   -2.501216974262    0.045813819525   -3.424652901606
