8

 N    1.223642535147   -0.035896524472    2.584206047012
 H    0.818993535147    0.782712475528    3.033502047012
 H    0.818993535147   -0.854505524472    3.033502047012
 C    2.684080535147   -0.035896524472    2.722243047012
 H    3.083183535147   -0.917837524472    2.215854047012
 H    3.052761535147   -0.035896524472    3.758073047012
 H    3.083183535147    0.846044475528    2.215854047012
NA   -2.622288010494    0.048469693121   -3.619961953569
