8

 N    1.246058756166   -0.036388257684    2.620367386769
 H    0.841409756166    0.782220742316    3.069663386769
 H    0.841409756166   -0.854997257684    3.069663386769
 C    2.706496756166   -0.036388257684    2.758404386769
 H    3.105599756166   -0.918329257684    2.252015386769
 H    3.075177756166   -0.036388257684    3.794234386769
 H    3.105599756166    0.845552742316    2.252015386769
NA   -2.652555769552    0.049133661520   -3.668789216560
