8

 N    1.313307419224   -0.037863457320    2.728851406040
 H    0.908658419224    0.780745542680    3.178147406040
 H    0.908658419224   -0.856472457320    3.178147406040
 C    2.773745419224   -0.037863457320    2.866888406040
 H    3.172848419224   -0.919804457320    2.360499406040
 H    3.142426419224   -0.037863457320    3.902718406040
 H    3.172848419224    0.844077542680    2.360499406040
NA   -2.743359046726    0.051125566717   -3.815271005532
