8

 N    1.425388524321   -0.040322123380    2.909658104825
 H    1.020739524321    0.778286876620    3.358954104825
 H    1.020739524321   -0.858931123380    3.358954104825
 C    2.885826524321   -0.040322123380    3.047695104825
 H    3.284929524321   -0.922263123380    2.541306104825
 H    3.254507524321   -0.040322123380    4.083525104825
 H    3.284929524321    0.841618876620    2.541306104825
NA   -2.894697842015    0.054445408711   -4.059407320486
