8

 N    1.470220966360   -0.041305589804    2.981980784338
 H    1.065571966360    0.777303410196    3.431276784338
 H    1.065571966360   -0.859914589804    3.431276784338
 C    2.930658966360   -0.041305589804    3.120017784338
 H    3.329761966360   -0.923246589804    2.613628784338
 H    3.299339966360   -0.041305589804    4.155847784338
 H    3.329761966360    0.840635410196    2.613628784338
NA   -2.955233360131    0.055773345509   -4.157061846467
