8

 N    1.492637187380   -0.041797323016    3.018142124095
 H    1.087988187380    0.776811676984    3.467438124095
 H    1.087988187380   -0.860406323016    3.467438124095
 C    2.953075187380   -0.041797323016    3.156179124095
 H    3.352178187380   -0.923738323016    2.649790124095
 H    3.321756187380   -0.041797323016    4.192009124095
 H    3.352178187380    0.840143676984    2.649790124095
NA   -2.985501119189    0.056437313908   -4.205889109458
