8

 N    1.515053408399   -0.042289056228    3.054303463852
 H    1.110404408399    0.776319943772    3.503599463852
 H    1.110404408399   -0.860898056228    3.503599463852
 C    2.975491408399   -0.042289056228    3.192340463852
 H    3.374594408399   -0.924230056228    2.685951463852
 H    3.344172408399   -0.042289056228    4.228170463852
 H    3.374594408399    0.839651943772    2.685951463852
NA   -3.015768878246    0.057101282307   -4.254716372449
