8

 N    1.604718292477   -0.044255989075    3.198948822880
 H    1.200069292477    0.774353010925    3.648244822880
 H    1.200069292477   -0.862864989075    3.648244822880
 C    3.065156292477   -0.044255989075    3.336985822880
 H    3.464259292477   -0.926196989075    2.830596822880
 H    3.433837292477   -0.044255989075    4.372815822880
 H    3.464259292477    0.837685010925    2.830596822880
NA   -3.136839914478    0.059757155903   -4.450025424412
