8

 N    1.649550734515   -0.045239455499    3.271271502394
 H    1.244901734515    0.773369544501    3.720567502394
 H    1.244901734515   -0.863848455499    3.720567502394
 C    3.109988734515   -0.045239455499    3.409308502394
 H    3.509091734515   -0.927180455499    2.902919502394
 H    3.478669734515   -0.045239455499    4.445138502394
 H    3.509091734515    0.836701544501    2.902919502394
NA   -3.197375432594    0.061085092700   -4.547679950393
