8

 N    1.694383176554   -0.046222921923    3.343594181908
 H    1.289734176554    0.772386078077    3.792890181908
 H    1.289734176554   -0.864831921923    3.792890181908
 C    3.154821176554   -0.046222921923    3.481631181908
 H    3.553924176554   -0.928163921923    2.975242181908
 H    3.523502176554   -0.046222921923    4.517461181908
 H    3.553924176554    0.835718078077    2.975242181908
NA   -3.257910950709    0.062413029498   -4.645334476375
