8

 N    1.739215618593   -0.047206388347    3.415916861422
 H    1.334566618593    0.771402611653    3.865212861422
 H    1.334566618593   -0.865815388347    3.865212861422
 C    3.199653618593   -0.047206388347    3.553953861422
 H    3.598756618593   -0.929147388347    3.047564861422
 H    3.568334618593   -0.047206388347    4.589783861422
 H    3.598756618593    0.834734611653    3.047564861422
NA   -3.318446468825    0.063740966296   -4.742989002356
