8

 N    1.806464281651   -0.048681587983    3.524400880692
 H    1.401815281651    0.769927412017    3.973696880692
 H    1.401815281651   -0.867290587983    3.973696880692
 C    3.266902281651   -0.048681587983    3.662437880692
 H    3.666005281651   -0.930622587983    3.156048880692
 H    3.635583281651   -0.048681587983    4.698267880692
 H    3.666005281651    0.833259412017    3.156048880692
NA   -3.409249745999    0.065732871493   -4.889470791329
