11

 H   -2.460026196484   -0.412766516646    0.815351286300
 H   -2.577060301874   -1.162865188370   -0.811716968754
 H   -2.460146566897    0.623033389313   -0.668230230041
 C   -2.140104833975   -0.334848027214   -0.233649686429
 S   -0.331204605957   -0.522872490331   -0.365069447937
 S    0.159292909360    1.174549903853    0.819989554536
 C    1.968193134572    0.986386759450    0.688768468678
 H    2.288116213411    0.028494311436    1.123412385719
 H    2.405148618022    1.814389893305    1.266855872045
 H    2.288233221814    1.064249767710   -0.360200292029
NA    0.351420840641   -1.332060840644   -0.930079813660
