11

 H   -2.471205661568   -0.399514310837    0.824604550571
 H   -2.588239766958   -1.149612982561   -0.802463704483
 H   -2.471326031981    0.636285595122   -0.658976965770
 C   -2.151284299059   -0.321595821405   -0.224396422158
 S   -0.342384071041   -0.509620284522   -0.355816183666
 S    0.148113444276    1.187802109662    0.829242818807
 C    1.957013669488    0.999638965259    0.698021732949
 H    2.276936748327    0.041746517245    1.132665649990
 H    2.393969152938    1.827642099114    1.276109136316
 H    2.277053756730    1.077501973519   -0.350947027758
NA    0.397126829440   -1.386240997361   -0.967910746533
