11

 H   -2.482385126652   -0.386262105028    0.833857814843
 H   -2.599419232042   -1.136360776752   -0.793210440211
 H   -2.482505497065    0.649537800931   -0.649723701498
 C   -2.162463764143   -0.308343615596   -0.215143157886
 S   -0.353563536125   -0.496368078713   -0.346562919394
 S    0.136933979192    1.201054315471    0.838496083079
 C    1.945834204404    1.012891171068    0.707274997221
 H    2.265757283243    0.054998723054    1.141918914262
 H    2.382789687854    1.840894304923    1.285362400588
 H    2.265874291646    1.090754179328   -0.341693763486
NA    0.442832818239   -1.440421154078   -1.005741679405
