11

 H   -2.515923521905   -0.346505487601    0.861617607657
 H   -2.632957627295   -1.096604159325   -0.765450647397
 H   -2.516043892318    0.689294418358   -0.621963908684
 C   -2.196002159396   -0.268586998169   -0.187383365072
 S   -0.387101931378   -0.456611461286   -0.318803126580
 S    0.103395583939    1.240810932898    0.866255875893
 C    1.912295809151    1.052647788495    0.735034790035
 H    2.232218887990    0.094755340481    1.169678707076
 H    2.349251292601    1.880650922350    1.313122193402
 H    2.232335896393    1.130510796755   -0.313933970672
NA    0.579950784637   -1.602961624229   -1.119234478021
