11

 H   -2.527102986989   -0.333253281791    0.870870871929
 H   -2.644137092379   -1.083351953515   -0.756197383125
 H   -2.527223357402    0.702546624168   -0.612710644412
 C   -2.207181624480   -0.255334792359   -0.178130100800
 S   -0.398281396462   -0.443359255476   -0.309549862308
 S    0.092216118855    1.254063138708    0.875509140165
 C    1.901116344067    1.065899994305    0.744288054307
 H    2.221039422906    0.108007546291    1.178931971348
 H    2.338071827517    1.893903128160    1.322375457674
 H    2.221156431309    1.143763002565   -0.304680706400
NA    0.625656773436   -1.657141780946   -1.157065410893
