11

 H   -3.443819123888    0.753427594551    1.629638542187
 H   -3.560853229278    0.003328922827    0.002570287133
 H   -3.443939494301    1.789227500510    0.146057025846
 C   -3.123897761379    0.831346083983    0.580637569458
 S   -1.314997533361    0.643321620866    0.449217807950
 S   -0.824500018044    2.340744015050    1.634276810423
 C    0.984400207168    2.152580870647    1.503055724565
 H    1.304323286007    1.194688422633    1.937699641606
 H    1.421355690618    2.980584004502    2.081143127932
 H    1.304440294410    2.230443878907    0.454086963858
NA    4.373547854957   -6.099914631741   -4.259201906411
