11

 H   -2.627718172746   -0.213983429510    0.954150250372
 H   -2.744752278136   -0.964082101234   -0.672918004682
 H   -2.627838543159    0.821816476449   -0.529431265969
 C   -2.307796810237   -0.136064940078   -0.094850722357
 S   -0.498896582219   -0.324089403195   -0.226270483865
 S   -0.008399066902    1.373332990989    0.958788518608
 C    1.800501158310    1.185169846586    0.827567432750
 H    2.120424237149    0.227277398572    1.262211349791
 H    2.237456641760    2.013172980441    1.405654836117
 H    2.120541245552    1.263032854846   -0.221401327957
NA    1.037010672627   -2.144763191399   -1.497543806743
