11

 H   -2.638897637830   -0.200731223701    0.963403514643
 H   -2.755931743220   -0.950829895425   -0.663664740411
 H   -2.639018008243    0.835068682258   -0.520178001698
 C   -2.318976275321   -0.122812734269   -0.085597458086
 S   -0.510076047303   -0.310837197386   -0.217017219594
 S   -0.019578531986    1.386585196798    0.968041782879
 C    1.789321693226    1.198422052395    0.836820697021
 H    2.109244772065    0.240529604381    1.271464614062
 H    2.226277176676    2.026425186250    1.414908100388
 H    2.109361780468    1.276285060655   -0.212148063686
NA    1.082716661426   -2.198943348116   -1.535374739615
