11

 H   -2.728333358503   -0.094713577229    1.037429628814
 H   -2.845367463893   -0.844812248953   -0.589638626240
 H   -2.728453728916    0.941086328730   -0.446151887527
 C   -2.408411995994   -0.016795087797   -0.011571343915
 S   -0.599511767976   -0.204819550914   -0.142991105423
 S   -0.109014252659    1.492602843270    1.042067897050
 C    1.699885972553    1.304439698867    0.910846811192
 H    2.019809051392    0.346547250853    1.345490728233
 H    2.136841456003    2.132442832722    1.488934214559
 H    2.019926059795    1.382302707127   -0.138121949515
NA    1.448364571818   -2.632384601852   -1.838022202592
