11

 H   -2.739512823587   -0.081461371419    1.046682893086
 H   -2.856546928977   -0.831560043143   -0.580385361968
 H   -2.739633194000    0.954338534540   -0.436898623255
 C   -2.419591461078   -0.003542881987   -0.002318079643
 S   -0.610691233060   -0.191567345104   -0.133737841151
 S   -0.120193717743    1.505855049080    1.051321161322
 C    1.688706507469    1.317691904677    0.920100075464
 H    2.008629586308    0.359799456663    1.354743992505
 H    2.125661990919    2.145695038532    1.498187478831
 H    2.008746594711    1.395554912937   -0.128868685243
NA    1.494070560617   -2.686564758569   -1.875853135465
