11

 H   -2.784230683924   -0.028452548183    1.083695950172
 H   -2.901264789314   -0.778551219907   -0.543372304882
 H   -2.784351054337    1.007347357776   -0.399885566169
 C   -2.464309321415    0.049465941249    0.034694977443
 S   -0.655409093397   -0.138558521868   -0.096724784065
 S   -0.164911578080    1.558863872316    1.088334218408
 C    1.643988647132    1.370700727913    0.957113132550
 H    1.963911725971    0.412808279899    1.391757049591
 H    2.080944130582    2.198703861768    1.535200535917
 H    1.964028734374    1.448563736173   -0.091855628157
NA    1.676894515813   -2.903285385437   -2.027176866953
