11

 H   -2.828948544260    0.024556275053    1.120709007257
 H   -2.945982649650   -0.725542396671   -0.506359247797
 H   -2.829068914673    1.060356181012   -0.362872509084
 C   -2.509027181751    0.102474764485    0.071708034528
 S   -0.700126953733   -0.085549698632   -0.059711726980
 S   -0.209629438416    1.611872695552    1.125347275493
 C    1.599270786796    1.423709551149    0.994126189635
 H    1.919193865635    0.465817103135    1.428770106676
 H    2.036226270246    2.251712685004    1.572213593002
 H    1.919310874038    1.501572559409   -0.054842571072
NA    1.859718471010   -3.120006012305   -2.178500598442
