11

 H   -2.840128009345    0.037808480862    1.129962271529
 H   -2.957162114735   -0.712290190862   -0.497105983525
 H   -2.840248379758    1.073608386821   -0.353619244812
 C   -2.520206646836    0.115726970294    0.080961298800
 S   -0.711306418818   -0.072297492823   -0.050458462708
 S   -0.220808903501    1.625124901361    1.134600539765
 C    1.588091321711    1.436961756958    1.003379453907
 H    1.908014400550    0.479069308944    1.438023370948
 H    2.025046805161    2.264964890813    1.581466857274
 H    1.908131408953    1.514824765218   -0.045589306800
NA    1.905424459809   -3.174186169022   -2.216331531314
