11

 H   -2.862486939513    0.064312892480    1.148468800072
 H   -2.979521044903   -0.685785779244   -0.478599454982
 H   -2.862607309926    1.100112798439   -0.335112716269
 C   -2.542565577004    0.142231381912    0.099467827343
 S   -0.733665348986   -0.045793081205   -0.031951934165
 S   -0.243167833669    1.651629312979    1.153107068308
 C    1.565732391543    1.463466168576    1.021885982450
 H    1.885655470382    0.505573720562    1.456529899491
 H    2.002687874993    2.291469302431    1.599973385817
 H    1.885772478785    1.541329176836   -0.027082778257
NA    1.996836437407   -3.282546482456   -2.291993397058
