11

 H   -2.884845869681    0.090817304098    1.166975328615
 H   -3.001879975071   -0.659281367626   -0.460092926439
 H   -2.884966240094    1.126617210057   -0.316606187726
 C   -2.564924507172    0.168735793530    0.117974355886
 S   -0.756024279154   -0.019288669587   -0.013445405622
 S   -0.265526763837    1.678133724597    1.171613596851
 C    1.543373461375    1.489970580194    1.040392510993
 H    1.863296540214    0.532078132180    1.475036428034
 H    1.980328944825    2.317973714049    1.618479914360
 H    1.863413548617    1.567833588454   -0.008576249714
NA    2.088248415005   -3.390906795890   -2.367655262803
