11

 H   -2.907204799849    0.117321715716    1.185481857157
 H   -3.024238905239   -0.632776956008   -0.441586397897
 H   -2.907325170262    1.153121621675   -0.298099659184
 C   -2.587283437340    0.195240205148    0.136480884428
 S   -0.778383209322    0.007215742031    0.005061122920
 S   -0.287885694005    1.704638136215    1.190120125393
 C    1.521014531207    1.516474991812    1.058899039535
 H    1.840937610046    0.558582543798    1.493542956576
 H    1.957970014657    2.344478125667    1.636986442902
 H    1.841054618449    1.594338000072    0.009930278828
NA    2.179660392603   -3.499267109324   -2.443317128547
