11

 H   -2.929563730018    0.143826127334    1.203988385700
 H   -3.046597835408   -0.606272544390   -0.423079869354
 H   -2.929684100431    1.179626033293   -0.279593130641
 C   -2.609642367509    0.221744616766    0.154987412971
 S   -0.800742139491    0.033720153649    0.023567651463
 S   -0.310244624174    1.731142547833    1.208626653936
 C    1.498655601038    1.542979403430    1.077405568078
 H    1.818578679877    0.585086955416    1.512049485119
 H    1.935611084488    2.370982537285    1.655492971445
 H    1.818695688280    1.620842411690    0.028436807371
NA    2.271072370201   -3.607627422758   -2.518978994291
