11

 H   -2.974281590354    0.196834950571    1.241001442786
 H   -3.091315695744   -0.553263721153   -0.386066812268
 H   -2.974401960767    1.232634856530   -0.242580073555
 C   -2.654360227845    0.274753440003    0.192000470057
 S   -0.845459999827    0.086728976886    0.060580708549
 S   -0.354962484510    1.784151371070    1.245639711022
 C    1.453937740702    1.595988226667    1.114418625164
 H    1.773860819541    0.638095778653    1.549062542205
 H    1.890893224152    2.423991360522    1.692506028531
 H    1.773977827944    1.673851234927    0.065449864457
NA    2.453896325397   -3.824348049626   -2.670302725780
