11

 H   -2.985461055438    0.210087156380    1.250254707058
 H   -3.102495160828   -0.540011515344   -0.376813547996
 H   -2.985581425851    1.245887062339   -0.233326809283
 C   -2.665539692929    0.288005645812    0.201253734329
 S   -0.856639464911    0.099981182695    0.069833972821
 S   -0.366141949594    1.797403576879    1.254892975294
 C    1.442758275618    1.609240432476    1.123671889436
 H    1.762681354457    0.651347984462    1.558315806477
 H    1.879713759068    2.437243566331    1.701759292803
 H    1.762798362860    1.687103440736    0.074703128729
NA    2.499602314196   -3.878528206343   -2.708133658652
