11

 H   -3.052537845943    0.289600391234    1.305774292686
 H   -3.169571951333   -0.460498280490   -0.321293962368
 H   -3.052658216356    1.325400297193   -0.177807223655
 C   -2.732616483434    0.367518880666    0.256773319957
 S   -0.923716255416    0.179494417549    0.125353558449
 S   -0.433218740099    1.876916811733    1.310412560922
 C    1.375681485113    1.688753667330    1.179191475064
 H    1.695604563952    0.730861219316    1.613835392105
 H    1.812636968563    2.516756801185    1.757278878431
 H    1.695721572355    1.766616675590    0.130222714357
NA    2.773838246990   -4.203609146645   -2.935119255885
