11

 H   -3.074896776112    0.316104802852    1.324280821229
 H   -3.191930881502   -0.433993868872   -0.302787433825
 H   -3.075017146525    1.351904708811   -0.159300695112
 C   -2.754975413603    0.394023292284    0.275279848500
 S   -0.946075185585    0.205998829167    0.143860086992
 S   -0.455577670268    1.903421223351    1.328919089465
 C    1.353322554944    1.715258078948    1.197698003607
 H    1.673245633783    0.757365630934    1.632341920648
 H    1.790278038394    2.543261212803    1.775785406974
 H    1.673362642186    1.793121087208    0.148729242900
NA    2.865250224588   -4.311969460079   -3.010781121630
