11

 H   -3.097255706280    0.342609214470    1.342787349772
 H   -3.214289811670   -0.407489457254   -0.284280905282
 H   -3.097376076693    1.378409120429   -0.140794166569
 C   -2.777334343771    0.420527703902    0.293786377043
 S   -0.968434115753    0.232503240785    0.162366615535
 S   -0.477936600436    1.929925634969    1.347425618008
 C    1.330963624776    1.741762490566    1.216204532150
 H    1.650886703615    0.783870042552    1.650848449191
 H    1.767919108226    2.569765624421    1.794291935517
 H    1.651003712018    1.819625498826    0.167235771443
NA    2.956662202187   -4.420329773513   -3.086442987374
