11

 H   -3.108435171364    0.355861420279    1.352040614043
 H   -3.225469276754   -0.394237251445   -0.275027641011
 H   -3.108555541777    1.391661326238   -0.131540902298
 C   -2.788513808855    0.433779909711    0.303039641314
 S   -0.979613580837    0.245755446594    0.171619879806
 S   -0.489116065520    1.943177840778    1.356678882279
 C    1.319784159692    1.755014696375    1.225457796421
 H    1.639707238531    0.797122248361    1.660101713462
 H    1.756739643142    2.583017830230    1.803545199788
 H    1.639824246934    1.832877704635    0.176489035714
NA    3.002368190986   -4.474509930230   -3.124273920246
