11

 H   -3.130794101532    0.382365831897    1.370547142586
 H   -3.247828206922   -0.367732839827   -0.256521112468
 H   -3.130914471945    1.418165737856   -0.113034373755
 C   -2.810872739023    0.460284321329    0.321546169857
 S   -1.001972511005    0.272259858212    0.190126408349
 S   -0.511474995688    1.969682252396    1.375185410822
 C    1.297425229524    1.781519107993    1.243964324964
 H    1.617348308363    0.823626659979    1.678608242005
 H    1.734380712974    2.609522241848    1.822051728331
 H    1.617465316766    1.859382116253    0.194995564257
NA    3.093780168584   -4.582870243664   -3.199935785991
