11

 H   -3.141973566616    0.395618037706    1.379800406858
 H   -3.259007672006   -0.354480634018   -0.247267848196
 H   -3.142093937029    1.431417943665   -0.103781109483
 C   -2.822052204107    0.473536527138    0.330799434129
 S   -1.013151976089    0.285512064021    0.199379672621
 S   -0.522654460772    1.982934458205    1.384438675094
 C    1.286245764440    1.794771313802    1.253217589236
 H    1.606168843279    0.836878865788    1.687861506277
 H    1.723201247890    2.622774447657    1.831304992603
 H    1.606285851682    1.872634322062    0.204248828529
NA    3.139486157383   -4.637050400381   -3.237766718863
