11

 H   -3.153153031701    0.408870243515    1.389053671129
 H   -3.270187137091   -0.341228428209   -0.238014583925
 H   -3.153273402114    1.444670149474   -0.094527845212
 C   -2.833231669192    0.486788732947    0.340052698400
 S   -1.024331441174    0.298764269830    0.208632936892
 S   -0.533833925857    1.996186664014    1.393691939365
 C    1.275066299355    1.808023519611    1.262470853507
 H    1.594989378194    0.850131071597    1.697114770548
 H    1.712021782805    2.636026653466    1.840558256874
 H    1.595106386597    1.885886527871    0.213502092800
NA    3.185192146182   -4.691230557098   -3.275597651735
