11

 H   -3.209050357121    0.475131272561    1.435319992486
 H   -3.326084462511   -0.274967399163   -0.191748262568
 H   -3.209170727534    1.510931178520   -0.048261523855
 C   -2.889128994612    0.553049761993    0.386319019757
 S   -1.080228766594    0.365025298876    0.254899258249
 S   -0.589731251277    2.062447693060    1.439958260722
 C    1.219168973935    1.874284548657    1.308737174864
 H    1.539092052774    0.916392100643    1.743381091905
 H    1.656124457385    2.702287682512    1.886824578231
 H    1.539209061177    1.952147556917    0.259768414157
NA    3.413722090177   -4.962131340683   -3.464752316096
