11

 H   -3.220229822205    0.488383478370    1.444573256758
 H   -3.337263927595   -0.261715193354   -0.182494998296
 H   -3.220350192618    1.524183384329   -0.039008259583
 C   -2.900308459696    0.566301967802    0.395572284029
 S   -1.091408231678    0.378277504685    0.264152522521
 S   -0.600910716361    2.075699898869    1.449211524994
 C    1.207989508851    1.887536754466    1.317990439136
 H    1.527912587690    0.929644306452    1.752634356177
 H    1.644944992301    2.715539888321    1.896077842503
 H    1.528029596093    1.965399762726    0.269021678429
NA    3.459428078976   -5.016311497400   -3.502583248968
