11

 H   -3.242588752374    0.514887889988    1.463079785301
 H   -3.359622857764   -0.235210781736   -0.163988469753
 H   -3.242709122787    1.550687795947   -0.020501731040
 C   -2.922667389865    0.592806379420    0.414078812572
 S   -1.113767161847    0.404781916303    0.282659051064
 S   -0.623269646530    2.102204310487    1.467718053537
 C    1.185630578682    1.914041166084    1.336496967679
 H    1.505553657521    0.956148718070    1.771140884720
 H    1.622586062132    2.742044299939    1.914584371046
 H    1.505670665924    1.991904174344    0.287528206972
NA    3.550840056574   -5.124671810834   -3.578245114712
