11

 H   -3.253768217458    0.528140095797    1.472333049572
 H   -3.370802322848   -0.221958575927   -0.154735205482
 H   -3.253888587871    1.563940001756   -0.011248466769
 C   -2.933846854949    0.606058585229    0.423332076843
 S   -1.124946626931    0.418034122112    0.291912315335
 S   -0.634449111614    2.115456516296    1.476971317808
 C    1.174451113598    1.927293371893    1.345750231950
 H    1.494374192437    0.969400923879    1.780394148991
 H    1.611406597048    2.755296505748    1.923837635317
 H    1.494491200840    2.005156380153    0.296781471243
NA    3.596546045373   -5.178851967551   -3.616076047584
