11

 H   -3.264947682542    0.541392301606    1.481586313844
 H   -3.381981787932   -0.208706370118   -0.145481941210
 H   -3.265068052955    1.577192207565   -0.001995202497
 C   -2.945026320033    0.619310791038    0.432585341115
 S   -1.136126092015    0.431286327921    0.301165579607
 S   -0.645628576698    2.128708722105    1.486224582080
 C    1.163271648514    1.940545577702    1.355003496222
 H    1.483194727353    0.982653129688    1.789647413263
 H    1.600227131964    2.768548711557    1.933090899589
 H    1.483311735756    2.018408585962    0.306034735515
NA    3.642252034172   -5.233032124268   -3.653906980457
