11

 H   -3.365562868299    0.660662153887    1.564865692286
 H   -3.482596973689   -0.089436517837   -0.062202562768
 H   -3.365683238712    1.696462059846    0.081284175945
 C   -3.045641505790    0.738580643319    0.515864719557
 S   -1.236741277772    0.550556180202    0.384444958049
 S   -0.746243762455    2.247978574386    1.569503960522
 C    1.062656462757    2.059815429983    1.438282874664
 H    1.382579541596    1.101922981969    1.872926791705
 H    1.499611946207    2.887818563838    2.016370278031
 H    1.382696549999    2.137678438243    0.389314113957
NA    4.053605933363   -5.720653534721   -3.994385376306
