11

 H   -3.376742333383    0.673914359697    1.574118956558
 H   -3.493776438773   -0.076184312027   -0.052949298496
 H   -3.376862703796    1.709714265656    0.090537440217
 C   -3.056820970874    0.751832849129    0.525117983829
 S   -1.247920742856    0.563808386012    0.393698222321
 S   -0.757423227539    2.261230780196    1.578757224794
 C    1.051476997673    2.073067635793    1.447536138936
 H    1.371400076512    1.115175187779    1.882180055977
 H    1.488432481123    2.901070769648    2.025623542303
 H    1.371517084915    2.150930644053    0.398567378229
NA    4.099311922162   -5.774833691438   -4.032216309178
