11

 H   -3.410280728636    0.713670977124    1.601878749372
 H   -3.527314834026   -0.036427694600   -0.025189505682
 H   -3.410401099049    1.749470883083    0.118297233031
 C   -3.090359366127    0.791589466556    0.552877776643
 S   -1.281459138109    0.603565003439    0.421458015135
 S   -0.790961622792    2.300987397623    1.606517017608
 C    1.017938602420    2.112824253220    1.475295931750
 H    1.337861681259    1.154931805206    1.909939848791
 H    1.454894085870    2.940827387075    2.053383335117
 H    1.337978689662    2.190687261480    0.426327171043
NA    4.236429888560   -5.937374161589   -4.145709107795
