11

 H   -3.421460193720    0.726923182933    1.611132013644
 H   -3.538494299110   -0.023175488791   -0.015936241410
 H   -3.421580564133    1.762723088892    0.127550497303
 C   -3.101538831211    0.804841672365    0.562131040915
 S   -1.292638603193    0.616817209248    0.430711279407
 S   -0.802141087876    2.314239603432    1.615770281880
 C    1.006759137336    2.126076459029    1.484549196022
 H    1.326682216175    1.168184011015    1.919193113063
 H    1.443714620786    2.954079592884    2.062636599389
 H    1.326799224578    2.203939467289    0.435580435315
NA    4.282135877359   -5.991554318307   -4.183540040667
