15

 N   -1.675359799372    0.831080864653   -0.000001943039
 H   -1.816069799372    1.446620864653    0.804258056961
 H   -1.816069799372    1.446620864653   -0.804261943039
 C   -2.764719799372   -0.186279135347   -0.000001943039
 H   -2.665029799372   -0.820519135347   -0.891101943039
 H   -3.770219799372    0.256090864653   -0.000001943039
 H   -2.665029799372   -0.820519135347    0.891098056961
NA    0.447850200628   -0.222159135347   -0.000001943039
 N    1.343684694642   -0.666546983217   -0.000001943039
 H    1.484390322009   -1.282086940324   -0.804265076430
 H    1.484384768996   -1.282098249689    0.804253506132
 C    2.433042172153    0.350807319703    0.000008997858
 H    2.333350607474    0.985036828205    0.891106886184
 H    3.438543202082   -0.091563451158    0.000009425909
 H    2.333356855119    0.985049304500   -0.891080709404
