15

 N   -1.773422490655    0.879725863954   -0.000001943039
 H   -1.914132490655    1.495265863954    0.804258056961
 H   -1.914132490655    1.495265863954   -0.804261943039
 C   -2.862782490655   -0.137634136046   -0.000001943039
 H   -2.763092490655   -0.771874136046   -0.891101943039
 H   -3.868282490655    0.304735863954   -0.000001943039
 H   -2.763092490655   -0.771874136046    0.891098056961
NA    0.349787509345   -0.173514136046   -0.000001943039
 N    1.514372351564   -0.751218338277   -0.000001943039
 H    1.655077978931   -1.366758295384   -0.804265076430
 H    1.655072425918   -1.366769604749    0.804253506132
 C    2.603729829075    0.266135964644    0.000008997858
 H    2.504038264396    0.900365473145    0.891106886184
 H    3.609230859003   -0.176234806218    0.000009425909
 H    2.504044512041    0.900377949440   -0.891080709404
