15

 N   -1.806110054416    0.895940863721   -0.000001943039
 H   -1.946820054416    1.511480863721    0.804258056961
 H   -1.946820054416    1.511480863721   -0.804261943039
 C   -2.895470054416   -0.121419136279   -0.000001943039
 H   -2.795780054416   -0.755659136279   -0.891101943039
 H   -3.900970054416    0.320950863721   -0.000001943039
 H   -2.795780054416   -0.755659136279    0.891098056961
NA    0.317099945584   -0.157299136279   -0.000001943039
 N    1.571268237204   -0.779442123296   -0.000001943039
 H    1.711973864571   -1.394982080404   -0.804265076430
 H    1.711968311558   -1.394993389769    0.804253506132
 C    2.660625714716    0.237912179624    0.000008997858
 H    2.560934150036    0.872141688125    0.891106886184
 H    3.666126744644   -0.204458591238    0.000009425909
 H    2.560940397682    0.872154164421   -0.891080709404
