15

 N   -1.936860309459    0.960800862790   -0.000001943039
 H   -2.077570309459    1.576340862790    0.804258056961
 H   -2.077570309459    1.576340862790   -0.804261943039
 C   -3.026220309459   -0.056559137210   -0.000001943039
 H   -2.926530309459   -0.690799137210   -0.891101943039
 H   -4.031720309459    0.385810862790   -0.000001943039
 H   -2.926530309459   -0.690799137210    0.891098056961
NA    0.186349690541   -0.092439137210   -0.000001943039
 N    1.798851779766   -0.892337263376   -0.000001943039
 H    1.939557407134   -1.507877220483   -0.804265076430
 H    1.939551854121   -1.507888529848    0.804253506132
 C    2.888209257278    0.125017039544    0.000008997858
 H    2.788517692598    0.759246548046    0.891106886184
 H    3.893710287206   -0.317353731317    0.000009425909
 H    2.788523940244    0.759259024341   -0.891080709404
