15

 N   -2.034923000742    1.009445862091   -0.000001943039
 H   -2.175633000742    1.624985862091    0.804258056961
 H   -2.175633000742    1.624985862091   -0.804261943039
 C   -3.124283000742   -0.007914137909   -0.000001943039
 H   -3.024593000742   -0.642154137909   -0.891101943039
 H   -4.129783000742    0.434455862091   -0.000001943039
 H   -3.024593000742   -0.642154137909    0.891098056961
NA    0.088286999258   -0.043794137909   -0.000001943039
 N    1.969539436688   -0.977008618436   -0.000001943039
 H    2.110245064055   -1.592548575543   -0.804265076430
 H    2.110239511042   -1.592559884908    0.804253506132
 C    3.058896914199    0.040345684485    0.000008997858
 H    2.959205349520    0.674575192986    0.891106886184
 H    4.064397944128   -0.402025086377    0.000009425909
 H    2.959211597165    0.674587669281   -0.891080709404
