15

 N   -2.100298128264    1.041875861625   -0.000001943039
 H   -2.241008128264    1.657415861625    0.804258056961
 H   -2.241008128264    1.657415861625   -0.804261943039
 C   -3.189658128264    0.024515861625   -0.000001943039
 H   -3.089968128264   -0.609724138375   -0.891101943039
 H   -4.195158128264    0.466885861625   -0.000001943039
 H   -3.089968128264   -0.609724138375    0.891098056961
NA    0.022911871736   -0.011364138375   -0.000001943039
 N    2.083331207969   -1.033456188475   -0.000001943039
 H    2.224036835336   -1.648996145583   -0.804265076430
 H    2.224031282323   -1.649007454948    0.804253506132
 C    3.172688685480   -0.016101885555    0.000008997858
 H    3.072997120801    0.618127622946    0.891106886184
 H    4.178189715409   -0.458472656417    0.000009425909
 H    3.073003368447    0.618140099242   -0.891080709404
