15

 N   -2.132985692024    1.058090861392   -0.000001943039
 H   -2.273695692024    1.673630861392    0.804258056961
 H   -2.273695692024    1.673630861392   -0.804261943039
 C   -3.222345692024    0.040730861392   -0.000001943039
 H   -3.122655692024   -0.593509138608   -0.891101943039
 H   -4.227845692024    0.483100861392   -0.000001943039
 H   -3.122655692024   -0.593509138608    0.891098056961
NA   -0.009775692024    0.004850861392   -0.000001943039
 N    2.140227093610   -1.061679973495   -0.000001943039
 H    2.280932720977   -1.677219930602   -0.804265076430
 H    2.280927167964   -1.677231239967    0.804253506132
 C    3.229584571121   -0.044325670575    0.000008997858
 H    3.129893006442    0.589903837926    0.891106886184
 H    4.235085601049   -0.486696441437    0.000009425909
 H    3.129899254087    0.589916314222   -0.891080709404
