15

 N   -2.263735947068    1.122950860461   -0.000001943039
 H   -2.404445947068    1.738490860461    0.804258056961
 H   -2.404445947068    1.738490860461   -0.804261943039
 C   -3.353095947068    0.105590860461   -0.000001943039
 H   -3.253405947068   -0.528649139539   -0.891101943039
 H   -4.358595947068    0.547960860461   -0.000001943039
 H   -3.253405947068   -0.528649139539    0.891098056961
NA   -0.140525947068    0.069710860461   -0.000001943039
 N    2.367810636172   -1.174575113575   -0.000001943039
 H    2.508516263539   -1.790115070682   -0.804265076430
 H    2.508510710526   -1.790126380047    0.804253506132
 C    3.457168113683   -0.157220810654    0.000008997858
 H    3.357476549004    0.477008697847    0.891106886184
 H    4.462669143612   -0.599591581516    0.000009425909
 H    3.357482796649    0.477021174142   -0.891080709404
