15

 N   -2.296423510829    1.139165860228   -0.000001943039
 H   -2.437133510829    1.754705860228    0.804258056961
 H   -2.437133510829    1.754705860228   -0.804261943039
 C   -3.385783510829    0.121805860228   -0.000001943039
 H   -3.286093510829   -0.512434139772   -0.891101943039
 H   -4.391283510829    0.564175860228   -0.000001943039
 H   -3.286093510829   -0.512434139772    0.891098056961
NA   -0.173213510829    0.085925860228   -0.000001943039
 N    2.424706521812   -1.202798898595   -0.000001943039
 H    2.565412149180   -1.818338855702   -0.804265076430
 H    2.565406596167   -1.818350165067    0.804253506132
 C    3.514063999324   -0.185444595674    0.000008997858
 H    3.414372434644    0.448784912827    0.891106886184
 H    4.519565029252   -0.627815366536    0.000009425909
 H    3.414378682290    0.448797389122   -0.891080709404
