15

 N   -2.394486202111    1.187810859529   -0.000001943039
 H   -2.535196202111    1.803350859529    0.804258056961
 H   -2.535196202111    1.803350859529   -0.804261943039
 C   -3.483846202111    0.170450859529   -0.000001943039
 H   -3.384156202111   -0.463789140471   -0.891101943039
 H   -4.489346202111    0.612820859529   -0.000001943039
 H   -3.384156202111   -0.463789140471    0.891098056961
NA   -0.271276202111    0.134570859529   -0.000001943039
 N    2.595394178734   -1.287470253654   -0.000001943039
 H    2.736099806101   -1.903010210761   -0.804265076430
 H    2.736094253088   -1.903021520126    0.804253506132
 C    3.684751656245   -0.270115950734    0.000008997858
 H    3.585060091566    0.364113557767    0.891106886184
 H    4.690252686174   -0.712486721596    0.000009425909
 H    3.585066339211    0.364126034063   -0.891080709404
