15

 N   -2.492548893394    1.236455858830   -0.000001943039
 H   -2.633258893394    1.851995858830    0.804258056961
 H   -2.633258893394    1.851995858830   -0.804261943039
 C   -3.581908893394    0.219095858830   -0.000001943039
 H   -3.482218893394   -0.415144141170   -0.891101943039
 H   -4.587408893394    0.661465858830   -0.000001943039
 H   -3.482218893394   -0.415144141170    0.891098056961
NA   -0.369338893394    0.183215858830   -0.000001943039
 N    2.766081835656   -1.372141608714   -0.000001943039
 H    2.906787463023   -1.987681565821   -0.804265076430
 H    2.906781910010   -1.987692875186    0.804253506132
 C    3.855439313167   -0.354787305793    0.000008997858
 H    3.755747748488    0.279442202708    0.891106886184
 H    4.860940343095   -0.797158076655    0.000009425909
 H    3.755753996133    0.279454679003   -0.891080709404
