15

 N   -2.557924020916    1.268885858365   -0.000001943039
 H   -2.698634020916    1.884425858365    0.804258056961
 H   -2.698634020916    1.884425858365   -0.804261943039
 C   -3.647284020916    0.251525858365   -0.000001943039
 H   -3.547594020916   -0.382714141635   -0.891101943039
 H   -4.652784020916    0.693895858365   -0.000001943039
 H   -3.547594020916   -0.382714141635    0.891098056961
NA   -0.434714020916    0.215645858365   -0.000001943039
 N    2.879873606937   -1.428589178754   -0.000001943039
 H    3.020579234304   -2.044129135861   -0.804265076430
 H    3.020573681291   -2.044140445226    0.804253506132
 C    3.969231084448   -0.411234875833    0.000008997858
 H    3.869539519769    0.222994632668    0.891106886184
 H    4.974732114376   -0.853605646695    0.000009425909
 H    3.869545767414    0.223007108963   -0.891080709404
