15

 N   -2.590611584677    1.285100858132   -0.000001943039
 H   -2.731321584677    1.900640858132    0.804258056961
 H   -2.731321584677    1.900640858132   -0.804261943039
 C   -3.679971584677    0.267740858132   -0.000001943039
 H   -3.580281584677   -0.366499141868   -0.891101943039
 H   -4.685471584677    0.710110858132   -0.000001943039
 H   -3.580281584677   -0.366499141868    0.891098056961
NA   -0.467401584677    0.231860858132   -0.000001943039
 N    2.936769492577   -1.456812963773   -0.000001943039
 H    3.077475119945   -2.072352920881   -0.804265076430
 H    3.077469566932   -2.072364230246    0.804253506132
 C    4.026126970089   -0.439458660853    0.000008997858
 H    3.926435405409    0.194770847648    0.891106886184
 H    5.031628000017   -0.881829431715    0.000009425909
 H    3.926441653055    0.194783323944   -0.891080709404
