15

 N   -2.623299148438    1.301315857899   -0.000001943039
 H   -2.764009148438    1.916855857899    0.804258056961
 H   -2.764009148438    1.916855857899   -0.804261943039
 C   -3.712659148438    0.283955857899   -0.000001943039
 H   -3.612969148438   -0.350284142101   -0.891101943039
 H   -4.718159148438    0.726325857899   -0.000001943039
 H   -3.612969148438   -0.350284142101    0.891098056961
NA   -0.500089148438    0.248075857899   -0.000001943039
 N    2.993665378218   -1.485036748793   -0.000001943039
 H    3.134371005585   -2.100576705901   -0.804265076430
 H    3.134365452572   -2.100588015266    0.804253506132
 C    4.083022855729   -0.467682445873    0.000008997858
 H    3.983331291050    0.166547062628    0.891106886184
 H    5.088523885658   -0.910053216735    0.000009425909
 H    3.983337538695    0.166559538924   -0.891080709404
