15

 N   -2.655986712198    1.317530857666   -0.000001943039
 H   -2.796696712198    1.933070857666    0.804258056961
 H   -2.796696712198    1.933070857666   -0.804261943039
 C   -3.745346712198    0.300170857666   -0.000001943039
 H   -3.645656712198   -0.334069142334   -0.891101943039
 H   -4.750846712198    0.742540857666   -0.000001943039
 H   -3.645656712198   -0.334069142334    0.891098056961
NA   -0.532776712198    0.264290857666   -0.000001943039
 N    3.050561263858   -1.513260533813   -0.000001943039
 H    3.191266891226   -2.128800490920   -0.804265076430
 H    3.191261338213   -2.128811800285    0.804253506132
 C    4.139918741370   -0.495906230893    0.000008997858
 H    4.040227176690    0.138323277608    0.891106886184
 H    5.145419771298   -0.938277001755    0.000009425909
 H    4.040233424336    0.138335753904   -0.891080709404
