15

 N   -2.754049403481    1.366175856967   -0.000001943039
 H   -2.894759403481    1.981715856967    0.804258056961
 H   -2.894759403481    1.981715856967   -0.804261943039
 C   -3.843409403481    0.348815856967   -0.000001943039
 H   -3.743719403481   -0.285424143033   -0.891101943039
 H   -4.848909403481    0.791185856967   -0.000001943039
 H   -3.743719403481   -0.285424143033    0.891098056961
NA   -0.630839403481    0.312935856967   -0.000001943039
 N    3.221248920780   -1.597931888873   -0.000001943039
 H    3.361954548147   -2.213471845980   -0.804265076430
 H    3.361948995134   -2.213483155345    0.804253506132
 C    4.310606398291   -0.580577585952    0.000008997858
 H    4.210914833612    0.053651922549    0.891106886184
 H    5.316107428220   -1.022948356814    0.000009425909
 H    4.210921081257    0.053664398844   -0.891080709404
