15

 N   -2.852112094764    1.414820856268   -0.000001943039
 H   -2.992822094764    2.030360856268    0.804258056961
 H   -2.992822094764    2.030360856268   -0.804261943039
 C   -3.941472094764    0.397460856268   -0.000001943039
 H   -3.841782094764   -0.236779143732   -0.891101943039
 H   -4.946972094764    0.839830856268   -0.000001943039
 H   -3.841782094764   -0.236779143732    0.891098056961
NA   -0.728902094764    0.361580856268   -0.000001943039
 N    3.391936577702   -1.682603243932   -0.000001943039
 H    3.532642205069   -2.298143201040   -0.804265076430
 H    3.532636652056   -2.298154510405    0.804253506132
 C    4.481294055213   -0.665248941012    0.000008997858
 H    4.381602490534   -0.031019432511    0.891106886184
 H    5.486795085141   -1.107619711874    0.000009425909
 H    4.381608738179   -0.031006956215   -0.891080709404
