15

 N   -2.982862349807    1.479680855337   -0.000001943039
 H   -3.123572349807    2.095220855337    0.804258056961
 H   -3.123572349807    2.095220855337   -0.804261943039
 C   -4.072222349807    0.462320855337   -0.000001943039
 H   -3.972532349807   -0.171919144663   -0.891101943039
 H   -5.077722349807    0.904690855337   -0.000001943039
 H   -3.972532349807   -0.171919144663    0.891098056961
NA   -0.859652349807    0.426440855337   -0.000001943039
 N    3.619520120264   -1.795498384012   -0.000001943039
 H    3.760225747631   -2.411038341119   -0.804265076430
 H    3.760220194618   -2.411049650484    0.804253506132
 C    4.708877597775   -0.778144081092    0.000008997858
 H    4.609186033096   -0.143914572590    0.891106886184
 H    5.714378627704   -1.220514851953    0.000009425909
 H    4.609192280741   -0.143902096295   -0.891080709404
