15

 N   -3.080925041090    1.528325854638   -0.000001943039
 H   -3.221635041090    2.143865854638    0.804258056961
 H   -3.221635041090    2.143865854638   -0.804261943039
 C   -4.170285041090    0.510965854638   -0.000001943039
 H   -4.070595041090   -0.123274145362   -0.891101943039
 H   -5.175785041090    0.953335854638   -0.000001943039
 H   -4.070595041090   -0.123274145362    0.891098056961
NA   -0.957715041090    0.475085854638   -0.000001943039
 N    3.790207777185   -1.880169739072   -0.000001943039
 H    3.930913404553   -2.495709696179   -0.804265076430
 H    3.930907851540   -2.495721005544    0.804253506132
 C    4.879565254697   -0.862815436151    0.000008997858
 H    4.779873690018   -0.228585927650    0.891106886184
 H    5.885066284625   -1.305186207013    0.000009425909
 H    4.779879937663   -0.228573451355   -0.891080709404
