15

 N   -3.113612604851    1.544540854405   -0.000001943039
 H   -3.254322604851    2.160080854405    0.804258056961
 H   -3.254322604851    2.160080854405   -0.804261943039
 C   -4.202972604851    0.527180854405   -0.000001943039
 H   -4.103282604851   -0.107059145595   -0.891101943039
 H   -5.208472604851    0.969550854405   -0.000001943039
 H   -4.103282604851   -0.107059145595    0.891098056961
NA   -0.990402604851    0.491300854405   -0.000001943039
 N    3.847103662826   -1.908393524091   -0.000001943039
 H    3.987809290193   -2.523933481199   -0.804265076430
 H    3.987803737180   -2.523944790564    0.804253506132
 C    4.936461140337   -0.891039221171    0.000008997858
 H    4.836769575658   -0.256809712670    0.891106886184
 H    5.941962170266   -1.333409992033    0.000009425909
 H    4.836775823303   -0.256797236374   -0.891080709404
