15

 N   -3.309737987416    1.641830853008   -0.000001943039
 H   -3.450447987416    2.257370853008    0.804258056961
 H   -3.450447987416    2.257370853008   -0.804261943039
 C   -4.399097987416    0.624470853008   -0.000001943039
 H   -4.299407987416   -0.009769146992   -0.891101943039
 H   -5.404597987416    1.066840853008   -0.000001943039
 H   -4.299407987416   -0.009769146992    0.891098056961
NA   -1.186527987416    0.588590853008   -0.000001943039
 N    4.188478976669   -2.077736234211   -0.000001943039
 H    4.329184604037   -2.693276191318   -0.804265076430
 H    4.329179051024   -2.693287500683    0.804253506132
 C    5.277836454181   -1.060381931290    0.000008997858
 H    5.178144889501   -0.426152422789    0.891106886184
 H    6.283337484109   -1.502752702152    0.000009425909
 H    5.178151137147   -0.426139946494   -0.891080709404
