15

 N   -3.407800678699    1.690475852309   -0.000001943039
 H   -3.548510678699    2.306015852309    0.804258056961
 H   -3.548510678699    2.306015852309   -0.804261943039
 C   -4.497160678699    0.673115852309   -0.000001943039
 H   -4.397470678699    0.038875852309   -0.891101943039
 H   -5.502660678699    1.115485852309   -0.000001943039
 H   -4.397470678699    0.038875852309    0.891098056961
NA   -1.284590678699    0.637235852309   -0.000001943039
 N    4.359166633591   -2.162407589270   -0.000001943039
 H    4.499872260958   -2.777947546378   -0.804265076430
 H    4.499866707945   -2.777958855743    0.804253506132
 C    5.448524111102   -1.145053286350    0.000008997858
 H    5.348832546423   -0.510823777849    0.891106886184
 H    6.454025141031   -1.587424057212    0.000009425909
 H    5.348838794068   -0.510811301553   -0.891080709404
