15

 N   -3.473175806220    1.722905851843   -0.000001943039
 H   -3.613885806220    2.338445851843    0.804258056961
 H   -3.613885806220    2.338445851843   -0.804261943039
 C   -4.562535806220    0.705545851843   -0.000001943039
 H   -4.462845806220    0.071305851843   -0.891101943039
 H   -5.568035806220    1.147915851843   -0.000001943039
 H   -4.462845806220    0.071305851843    0.891098056961
NA   -1.349965806220    0.669665851843   -0.000001943039
 N    4.472958404872   -2.218855159310   -0.000001943039
 H    4.613664032239   -2.834395116417   -0.804265076430
 H    4.613658479226   -2.834406425782    0.804253506132
 C    5.562315882383   -1.201500856390    0.000008997858
 H    5.462624317704   -0.567271347888    0.891106886184
 H    6.567816912312   -1.643871627251    0.000009425909
 H    5.462630565349   -0.567258871593   -0.891080709404
