15

 N   -3.538550933742    1.755335851378   -0.000001943039
 H   -3.679260933742    2.370875851378    0.804258056961
 H   -3.679260933742    2.370875851378   -0.804261943039
 C   -4.627910933742    0.737975851378   -0.000001943039
 H   -4.528220933742    0.103735851378   -0.891101943039
 H   -5.633410933742    1.180345851378   -0.000001943039
 H   -4.528220933742    0.103735851378    0.891098056961
NA   -1.415340933742    0.702095851378   -0.000001943039
 N    4.586750176153   -2.275302729350   -0.000001943039
 H    4.727455803520   -2.890842686457   -0.804265076430
 H    4.727450250507   -2.890853995822    0.804253506132
 C    5.676107653664   -1.257948426429    0.000008997858
 H    5.576416088985   -0.623718917928    0.891106886184
 H    6.681608683593   -1.700319197291    0.000009425909
 H    5.576422336631   -0.623706441633   -0.891080709404
