15

 N   -3.571238497503    1.771550851145   -0.000001943039
 H   -3.711948497503    2.387090851145    0.804258056961
 H   -3.711948497503    2.387090851145   -0.804261943039
 C   -4.660598497503    0.754190851145   -0.000001943039
 H   -4.560908497503    0.119950851145   -0.891101943039
 H   -5.666098497503    1.196560851145   -0.000001943039
 H   -4.560908497503    0.119950851145    0.891098056961
NA   -1.448028497503    0.718310851145   -0.000001943039
 N    4.643646061794   -2.303526514370   -0.000001943039
 H    4.784351689161   -2.919066471477   -0.804265076430
 H    4.784346136148   -2.919077780842    0.804253506132
 C    5.733003539305   -1.286172211449    0.000008997858
 H    5.633311974626   -0.651942702948    0.891106886184
 H    6.738504569233   -1.728542982311    0.000009425909
 H    5.633318222271   -0.651930226653   -0.891080709404
