15

 N   -3.603926061264    1.787765850912   -0.000001943039
 H   -3.744636061264    2.403305850912    0.804258056961
 H   -3.744636061264    2.403305850912   -0.804261943039
 C   -4.693286061264    0.770405850912   -0.000001943039
 H   -4.593596061264    0.136165850912   -0.891101943039
 H   -5.698786061264    1.212775850912   -0.000001943039
 H   -4.593596061264    0.136165850912    0.891098056961
NA   -1.480716061264    0.734525850912   -0.000001943039
 N    4.700541947434   -2.331750299390   -0.000001943039
 H    4.841247574801   -2.947290256497   -0.804265076430
 H    4.841242021788   -2.947301565862    0.804253506132
 C    5.789899424946   -1.314395996469    0.000008997858
 H    5.690207860266   -0.680166487968    0.891106886184
 H    6.795400454874   -1.756766767331    0.000009425909
 H    5.690214107912   -0.680154011673   -0.891080709404
