15

 N   -3.636613625025    1.803980850679   -0.000001943039
 H   -3.777323625025    2.419520850679    0.804258056961
 H   -3.777323625025    2.419520850679   -0.804261943039
 C   -4.725973625025    0.786620850679   -0.000001943039
 H   -4.626283625025    0.152380850679   -0.891101943039
 H   -5.731473625025    1.228990850679   -0.000001943039
 H   -4.626283625025    0.152380850679    0.891098056961
NA   -1.513403625025    0.750740850679   -0.000001943039
 N    4.757437833075   -2.359974084409   -0.000001943039
 H    4.898143460442   -2.975514041517   -0.804265076430
 H    4.898137907429   -2.975525350882    0.804253506132
 C    5.846795310586   -1.342619781489    0.000008997858
 H    5.747103745907   -0.708390272988    0.891106886184
 H    6.852296340514   -1.784990552351    0.000009425909
 H    5.747109993552   -0.708377796692   -0.891080709404
