15

 N   -3.669301188786    1.820195850446   -0.000001943039
 H   -3.810011188786    2.435735850446    0.804258056961
 H   -3.810011188786    2.435735850446   -0.804261943039
 C   -4.758661188786    0.802835850446   -0.000001943039
 H   -4.658971188786    0.168595850446   -0.891101943039
 H   -5.764161188786    1.245205850446   -0.000001943039
 H   -4.658971188786    0.168595850446    0.891098056961
NA   -1.546091188786    0.766955850446   -0.000001943039
 N    4.814333718715   -2.388197869429   -0.000001943039
 H    4.955039346083   -3.003737826537   -0.804265076430
 H    4.955033793070   -3.003749135901    0.804253506132
 C    5.903691196227   -1.370843566509    0.000008997858
 H    5.803999631547   -0.736614058008    0.891106886184
 H    6.909192226155   -1.813214337371    0.000009425909
 H    5.804005879193   -0.736601581712   -0.891080709404
