15

 N   -3.734676316307    1.852625849980   -0.000001943039
 H   -3.875386316307    2.468165849980    0.804258056961
 H   -3.875386316307    2.468165849980   -0.804261943039
 C   -4.824036316307    0.835265849980   -0.000001943039
 H   -4.724346316307    0.201025849980   -0.891101943039
 H   -5.829536316307    1.277635849980   -0.000001943039
 H   -4.724346316307    0.201025849980    0.891098056961
NA   -1.611466316307    0.799385849980   -0.000001943039
 N    4.928125489996   -2.444645439469   -0.000001943039
 H    5.068831117364   -3.060185396576   -0.804265076430
 H    5.068825564351   -3.060196705941    0.804253506132
 C    6.017482967508   -1.427291136549    0.000008997858
 H    5.917791402828   -0.793061628047    0.891106886184
 H    7.022983997436   -1.869661907410    0.000009425909
 H    5.917797650474   -0.793049151752   -0.891080709404
