15

 N   -3.800051443829    1.885055849514   -0.000001943039
 H   -3.940761443829    2.500595849514    0.804258056961
 H   -3.940761443829    2.500595849514   -0.804261943039
 C   -4.889411443829    0.867695849514   -0.000001943039
 H   -4.789721443829    0.233455849514   -0.891101943039
 H   -5.894911443829    1.310065849514   -0.000001943039
 H   -4.789721443829    0.233455849514    0.891098056961
NA   -1.676841443829    0.831815849514   -0.000001943039
 N    5.041917261277   -2.501093009509   -0.000001943039
 H    5.182622888645   -3.116632966616   -0.804265076430
 H    5.182617335632   -3.116644275981    0.804253506132
 C    6.131274738789   -1.483738706588    0.000008997858
 H    6.031583174110   -0.849509198087    0.891106886184
 H    7.136775768717   -1.926109477450    0.000009425909
 H    6.031589421755   -0.849496721792   -0.891080709404
