15

 N   -3.832739007590    1.901270849281   -0.000001943039
 H   -3.973449007590    2.516810849281    0.804258056961
 H   -3.973449007590    2.516810849281   -0.804261943039
 C   -4.922099007590    0.883910849281   -0.000001943039
 H   -4.822409007590    0.249670849281   -0.891101943039
 H   -5.927599007590    1.326280849281   -0.000001943039
 H   -4.822409007590    0.249670849281    0.891098056961
NA   -1.709529007590    0.848030849281   -0.000001943039
 N    5.098813146918   -2.529316794529   -0.000001943039
 H    5.239518774285   -3.144856751636   -0.804265076430
 H    5.239513221272   -3.144868061001    0.804253506132
 C    6.188170624429   -1.511962491608    0.000008997858
 H    6.088479059750   -0.877732983107    0.891106886184
 H    7.193671654358   -1.954333262470    0.000009425909
 H    6.088485307395   -0.877720506812   -0.891080709404
