15

 N   -3.865426571351    1.917485849049   -0.000001943039
 H   -4.006136571351    2.533025849049    0.804258056961
 H   -4.006136571351    2.533025849049   -0.804261943039
 C   -4.954786571351    0.900125849049   -0.000001943039
 H   -4.855096571351    0.265885849049   -0.891101943039
 H   -5.960286571351    1.342495849049   -0.000001943039
 H   -4.855096571351    0.265885849049    0.891098056961
NA   -1.742216571351    0.864245849049   -0.000001943039
 N    5.155709032559   -2.557540579549   -0.000001943039
 H    5.296414659926   -3.173080536656   -0.804265076430
 H    5.296409106913   -3.173091846021    0.804253506132
 C    6.245066510070   -1.540186276628    0.000008997858
 H    6.145374945391   -0.905956768127    0.891106886184
 H    7.250567539998   -1.982557047490    0.000009425909
 H    6.145381193036   -0.905944291832   -0.891080709404
