15

 N   -3.898114135112    1.933700848816   -0.000001943039
 H   -4.038824135112    2.549240848816    0.804258056961
 H   -4.038824135112    2.549240848816   -0.804261943039
 C   -4.987474135112    0.916340848816   -0.000001943039
 H   -4.887784135112    0.282100848816   -0.891101943039
 H   -5.992974135112    1.358710848816   -0.000001943039
 H   -4.887784135112    0.282100848816    0.891098056961
NA   -1.774904135112    0.880460848816   -0.000001943039
 N    5.212604918199   -2.585764364568   -0.000001943039
 H    5.353310545566   -3.201304321676   -0.804265076430
 H    5.353304992553   -3.201315631041    0.804253506132
 C    6.301962395710   -1.568410061648    0.000008997858
 H    6.202270831031   -0.934180553147    0.891106886184
 H    7.307463425639   -2.010780832510    0.000009425909
 H    6.202277078677   -0.934168076851   -0.891080709404
