15

 N   -3.930801698873    1.949915848583   -0.000001943039
 H   -4.071511698873    2.565455848583    0.804258056961
 H   -4.071511698873    2.565455848583   -0.804261943039
 C   -5.020161698873    0.932555848583   -0.000001943039
 H   -4.920471698873    0.298315848583   -0.891101943039
 H   -6.025661698873    1.374925848583   -0.000001943039
 H   -4.920471698873    0.298315848583    0.891098056961
NA   -1.807591698873    0.896675848583   -0.000001943039
 N    5.269500803840   -2.613988149588   -0.000001943039
 H    5.410206431207   -3.229528106696   -0.804265076430
 H    5.410200878194   -3.229539416060    0.804253506132
 C    6.358858281351   -1.596633846668    0.000008997858
 H    6.259166716672   -0.962404338167    0.891106886184
 H    7.364359311279   -2.039004617530    0.000009425909
 H    6.259172964317   -0.962391861871   -0.891080709404
