15

 N   -4.028864390155    1.998560847884   -0.000001943039
 H   -4.169574390155    2.614100847884    0.804258056961
 H   -4.169574390155    2.614100847884   -0.804261943039
 C   -5.118224390155    0.981200847884   -0.000001943039
 H   -5.018534390155    0.346960847884   -0.891101943039
 H   -6.123724390155    1.423570847884   -0.000001943039
 H   -5.018534390155    0.346960847884    0.891098056961
NA   -1.905654390155    0.945320847884   -0.000001943039
 N    5.440188460761   -2.698659504648   -0.000001943039
 H    5.580894088129   -3.314199461755   -0.804265076430
 H    5.580888535116   -3.314210771120    0.804253506132
 C    6.529545938273   -1.681305201728    0.000008997858
 H    6.429854373593   -1.047075693226    0.891106886184
 H    7.535046968201   -2.123675972589    0.000009425909
 H    6.429860621239   -1.047063216931   -0.891080709404
