15

 N   -4.192302208960    2.079635846720   -0.000001943039
 H   -4.333012208960    2.695175846720    0.804258056961
 H   -4.333012208960    2.695175846720   -0.804261943039
 C   -5.281662208960    1.062275846720   -0.000001943039
 H   -5.181972208960    0.428035846720   -0.891101943039
 H   -6.287162208960    1.504645846720   -0.000001943039
 H   -5.181972208960    0.428035846720    0.891098056961
NA   -2.069092208960    1.026395846720   -0.000001943039
 N    5.724667888964   -2.839778429747   -0.000001943039
 H    5.865373516331   -3.455318386855   -0.804265076430
 H    5.865367963318   -3.455329696219    0.804253506132
 C    6.814025366475   -1.822424126827    0.000008997858
 H    6.714333801796   -1.188194618326    0.891106886184
 H    7.819526396404   -2.264794897689    0.000009425909
 H    6.714340049441   -1.188182142030   -0.891080709404
