15

 N   -4.290364900242    2.128280846021   -0.000001943039
 H   -4.431074900242    2.743820846021    0.804258056961
 H   -4.431074900242    2.743820846021   -0.804261943039
 C   -5.379724900242    1.110920846021   -0.000001943039
 H   -5.280034900242    0.476680846021   -0.891101943039
 H   -6.385224900242    1.553290846021   -0.000001943039
 H   -5.280034900242    0.476680846021    0.891098056961
NA   -2.167154900242    1.075040846021   -0.000001943039
 N    5.895355545886   -2.924449784807   -0.000001943039
 H    6.036061173253   -3.539989741914   -0.804265076430
 H    6.036055620240   -3.540001051279    0.804253506132
 C    6.984713023397   -1.907095481887    0.000008997858
 H    6.885021458718   -1.272865973385    0.891106886184
 H    7.990214053325   -2.349466252748    0.000009425909
 H    6.885027706363   -1.272853497090   -0.891080709404
