15

 N   -4.323052464003    2.144495845788   -0.000001943039
 H   -4.463762464003    2.760035845788    0.804258056961
 H   -4.463762464003    2.760035845788   -0.804261943039
 C   -5.412412464003    1.127135845788   -0.000001943039
 H   -5.312722464003    0.492895845788   -0.891101943039
 H   -6.417912464003    1.569505845788   -0.000001943039
 H   -5.312722464003    0.492895845788    0.891098056961
NA   -2.199842464003    1.091255845788   -0.000001943039
 N    5.952251431526   -2.952673569827   -0.000001943039
 H    6.092957058893   -3.568213526934   -0.804265076430
 H    6.092951505880   -3.568224836299    0.804253506132
 C    7.041608909038   -1.935319266906    0.000008997858
 H    6.941917344358   -1.301089758405    0.891106886184
 H    8.047109938966   -2.377690037768    0.000009425909
 H    6.941923592004   -1.301077282110   -0.891080709404
