15

 N   -4.453802719047    2.209355844856   -0.000001943039
 H   -4.594512719047    2.824895844856    0.804258056961
 H   -4.594512719047    2.824895844856   -0.804261943039
 C   -5.543162719047    1.191995844856   -0.000001943039
 H   -5.443472719047    0.557755844856   -0.891101943039
 H   -6.548662719047    1.634365844856   -0.000001943039
 H   -5.443472719047    0.557755844856    0.891098056961
NA   -2.330592719047    1.156115844856   -0.000001943039
 N    6.179834974088   -3.065568709906   -0.000001943039
 H    6.320540601456   -3.681108667014   -0.804265076430
 H    6.320535048443   -3.681119976378    0.804253506132
 C    7.269192451600   -2.048214406986    0.000008997858
 H    7.169500886920   -1.413984898485    0.891106886184
 H    8.274693481528   -2.490585177848    0.000009425909
 H    7.169507134566   -1.413972422189   -0.891080709404
