15

 N   -4.486490282807    2.225570844623   -0.000001943039
 H   -4.627200282807    2.841110844623    0.804258056961
 H   -4.627200282807    2.841110844623   -0.804261943039
 C   -5.575850282807    1.208210844623   -0.000001943039
 H   -5.476160282807    0.573970844623   -0.891101943039
 H   -6.581350282807    1.650580844623   -0.000001943039
 H   -5.476160282807    0.573970844623    0.891098056961
NA   -2.363280282807    1.172330844623   -0.000001943039
 N    6.236730859729   -3.093792494926   -0.000001943039
 H    6.377436487096   -3.709332452033   -0.804265076430
 H    6.377430934083   -3.709343761398    0.804253506132
 C    7.326088337240   -2.076438192006    0.000008997858
 H    7.226396772561   -1.442208683504    0.891106886184
 H    8.331589367169   -2.518808962868    0.000009425909
 H    7.226403020206   -1.442196207209   -0.891080709404
