15

 N   -4.584552974090    2.274215843925   -0.000001943039
 H   -4.725262974090    2.889755843925    0.804258056961
 H   -4.725262974090    2.889755843925   -0.804261943039
 C   -5.673912974090    1.256855843925   -0.000001943039
 H   -5.574222974090    0.622615843925   -0.891101943039
 H   -6.679412974090    1.699225843925   -0.000001943039
 H   -5.574222974090    0.622615843925    0.891098056961
NA   -2.461342974090    1.220975843925   -0.000001943039
 N    6.407418516651   -3.178463849986   -0.000001943039
 H    6.548124144018   -3.794003807093   -0.804265076430
 H    6.548118591005   -3.794015116458    0.804253506132
 C    7.496775994162   -2.161109547065    0.000008997858
 H    7.397084429483   -1.526880038564    0.891106886184
 H    8.502277024090   -2.603480317927    0.000009425909
 H    7.397090677128   -1.526867562269   -0.891080709404
