33

 N    0.408347743048   -4.244461244523   -0.110597610898
 C    1.643117743048   -3.673911244523    0.116832389102
 N    2.864957743048   -4.239181244523   -0.103077610898
 C    3.830507743048   -3.339121244523   -0.128437610898
 N    3.626627743048   -1.971231244523    0.006692389102
 H    4.394437743048   -1.334931244523   -0.196037610898
 N    5.117467743048   -3.737921244523   -0.376837610898
 H    5.884857743048   -3.171101244523   -0.039907610898
 H    5.254817743048   -4.741941244523   -0.329707610898
 C    2.389287743048   -1.357111244523    0.253072389102
 O    2.219497743048   -0.131511244523    0.349042389102
 C    1.349357743048   -2.349891244523    0.457772389102
 N   -0.019392256952   -2.072281244523    0.370282389102
 C   -0.544252256952   -3.260841244523    0.056112389102
 H   -1.609742256952   -3.460911244523   -0.049877610898
 H    0.236067743048   -5.220951244523   -0.326537610898
RB   -0.455172256952    0.792678755477   -0.154417610898
 C   -1.093480421013    1.904285704174   -0.370964786593
 N    0.275263710727    1.626678874532   -0.283475516022
 C    0.800117543134    2.815249073264    0.030695082370
 H    1.865609140885    3.015311334630    0.136684068114
 N   -0.152479466062    3.798857026972    0.197401721629
 H    0.019805309280    4.775353678484    0.413345876842
 C   -1.387245067187    3.228312533503   -0.030023253585
 C   -2.133413155679    0.911506132882   -0.166268418543
 O   -1.963624442415   -0.314092512441   -0.262239215308
 N   -3.370752499474    1.525628631451    0.080111147672
 H   -4.138560660465    0.889327744226    0.282846366204
 C   -3.574628013895    2.893523096317    0.215240255228
 N   -2.609079860777    3.793582832980    0.189884939234
 N   -4.861598740063    3.292322555138    0.463639820708
 H   -5.628974903418    2.725496627032    0.126711454375
 H   -4.998943371879    4.296336634416    0.416509444919
