33

 N    0.446675482402   -4.311208599159   -0.097594857408
 C    1.681445482402   -3.740658599159    0.129835142592
 N    2.903285482402   -4.305928599159   -0.090074857408
 C    3.868835482402   -3.405868599159   -0.115434857408
 N    3.664955482402   -2.037978599159    0.019695142592
 H    4.432765482402   -1.401678599159   -0.183034857408
 N    5.155795482402   -3.804668599159   -0.363834857408
 H    5.923185482402   -3.237848599159   -0.026904857408
 H    5.293145482402   -4.808688599159   -0.316704857408
 C    2.427615482402   -1.423858599159    0.266075142592
 O    2.257825482402   -0.198258599159    0.362045142592
 C    1.387685482402   -2.416638599159    0.470775142592
 N    0.018935482402   -2.139028599159    0.383285142592
 C   -0.505924517598   -3.327588599159    0.069115142592
 H   -1.571414517598   -3.527658599159   -0.036874857408
 H    0.274395482402   -5.287698599159   -0.313534857408
RB   -0.416844517598    0.725931400841   -0.141414857408
 C   -1.153353937668    2.008554803184   -0.391276983210
 N    0.215390194071    1.730947973542   -0.303787712639
 C    0.740244026478    2.919518172274    0.010382885753
 H    1.805735624229    3.119580433640    0.116371871497
 N   -0.212352982718    3.903126125981    0.177089525012
 H   -0.040068207376    4.879622777494    0.393033680225
 C   -1.447118583843    3.332581632513   -0.050335450202
 C   -2.193286672335    1.015775231892   -0.186580615160
 O   -2.023497959070   -0.209823413431   -0.282551411925
 N   -3.430626016130    1.629897730460    0.059798951055
 H   -4.198434177120    0.993596843235    0.262534169587
 C   -3.634501530550    2.997792195326    0.194928058611
 N   -2.668953377433    3.897851931990    0.169572742617
 N   -4.921472256718    3.396591654148    0.443327624091
 H   -5.688848420074    2.829765726041    0.106399257758
 H   -5.058816888535    4.400605733426    0.396197248302
