33

 N    0.485003221756   -4.377955953795   -0.084592103918
 C    1.719773221756   -3.807405953795    0.142837896082
 N    2.941613221756   -4.372675953795   -0.077072103918
 C    3.907163221756   -3.472615953795   -0.102432103918
 N    3.703283221756   -2.104725953795    0.032697896082
 H    4.471093221756   -1.468425953795   -0.170032103918
 N    5.194123221756   -3.871415953795   -0.350832103918
 H    5.961513221756   -3.304595953795   -0.013902103918
 H    5.331473221756   -4.875435953795   -0.303702103918
 C    2.465943221756   -1.490605953795    0.279077896082
 O    2.296153221756   -0.265005953795    0.375047896082
 C    1.426013221756   -2.483385953795    0.483777896082
 N    0.057263221756   -2.205775953795    0.396287896082
 C   -0.467596778244   -3.394335953795    0.082117896082
 H   -1.533086778244   -3.594405953795   -0.023872103918
 H    0.312723221756   -5.354445953795   -0.300532103918
RB   -0.378516778244    0.659184046205   -0.128412103918
 C   -1.213227454323    2.112823902194   -0.411589179827
 N    0.155516677416    1.835217072551   -0.324099909256
 C    0.680370509823    3.023787271283   -0.009929310864
 H    1.745862107574    3.223849532650    0.096059674880
 N   -0.272226499373    4.007395224991    0.156777328395
 H   -0.099941724031    4.983891876503    0.372721483608
 C   -1.506992100498    3.436850731522   -0.070647646819
 C   -2.253160188990    1.120044330901   -0.206892811777
 O   -2.083371475726   -0.105554314421   -0.302863608542
 N   -3.490499532785    1.734166829470    0.039486754438
 H   -4.258307693776    1.097865942245    0.242221972970
 C   -3.694375047206    3.102061294336    0.174615861994
 N   -2.728826894088    4.002121030999    0.149260546000
 N   -4.981345773373    3.500860753157    0.423015427474
 H   -5.748721936729    2.934034825051    0.086087061141
 H   -5.118690405190    4.504874832436    0.375885051685
