33

 N    0.504167091433   -4.411329631113   -0.078090727173
 C    1.738937091433   -3.840779631113    0.149339272827
 N    2.960777091433   -4.406049631113   -0.070570727173
 C    3.926327091433   -3.505989631113   -0.095930727173
 N    3.722447091433   -2.138099631113    0.039199272827
 H    4.490257091433   -1.501799631113   -0.163530727173
 N    5.213287091433   -3.904789631113   -0.344330727173
 H    5.980677091433   -3.337969631113   -0.007400727173
 H    5.350637091433   -4.908809631113   -0.297200727173
 C    2.485107091433   -1.523979631113    0.285579272827
 O    2.315317091433   -0.298379631113    0.381549272827
 C    1.445177091433   -2.516759631113    0.490279272827
 N    0.076427091433   -2.239149631113    0.402789272827
 C   -0.448432908567   -3.427709631113    0.088619272827
 H   -1.513922908567   -3.627779631113   -0.017370727173
 H    0.331887091433   -5.387819631113   -0.294030727173
RB   -0.359352908567    0.625810368887   -0.121910727173
 C   -1.243164212651    2.164958451699   -0.421745278135
 N    0.125579919088    1.887351622056   -0.334256007565
 C    0.650433751495    3.075921820788   -0.020085409172
 H    1.715925349246    3.275984082155    0.085903576572
 N   -0.302163257701    4.059529774496    0.146621230086
 H   -0.129878482359    5.036026426008    0.362565385299
 C   -1.536928858826    3.488985281027   -0.080803745128
 C   -2.283096947318    1.172178880406   -0.217048910085
 O   -2.113308234054   -0.053419764916   -0.313019706850
 N   -3.520436291113    1.786301378975    0.029330656130
 H   -4.288244452103    1.150000491750    0.232065874661
 C   -3.724311805533    3.154195843841    0.164459763685
 N   -2.758763652416    4.054255580504    0.139104447692
 N   -5.011282531701    3.552995302662    0.412859329165
 H   -5.778658695057    2.986169374556    0.075930962832
 H   -5.148627163518    4.557009381941    0.365728953377
