33

 N    0.638314179172   -4.644945372339   -0.032581089959
 C    1.873084179172   -4.074395372339    0.194848910041
 N    3.094924179172   -4.639665372339   -0.025061089959
 C    4.060474179172   -3.739605372339   -0.050421089959
 N    3.856594179172   -2.371715372339    0.084708910041
 H    4.624404179172   -1.735415372339   -0.118021089959
 N    5.347434179172   -4.138405372339   -0.298821089959
 H    6.114824179172   -3.571585372339    0.038108910041
 H    5.484784179172   -5.142425372339   -0.251691089959
 C    2.619254179172   -1.757595372339    0.331088910041
 O    2.449464179172   -0.531995372339    0.427058910041
 C    1.579324179172   -2.750375372339    0.535788910041
 N    0.210574179172   -2.472765372339    0.448298910041
 C   -0.314285820828   -3.661325372339    0.134128910041
 H   -1.379775820828   -3.861395372339    0.028138910041
 H    0.466034179172   -5.621435372339   -0.248521089959
RB   -0.225205820828    0.392194627661   -0.076401089959
 C   -1.452721520945    2.529900298233   -0.492837966295
 N   -0.083977389206    2.252293468590   -0.405348695725
 C    0.440876443201    3.440863667322   -0.091178097332
 H    1.506368040952    3.640925928689    0.014810888412
 N   -0.511720565995    4.424471621030    0.075528541927
 H   -0.339435790653    5.400968272542    0.291472697140
 C   -1.746486167120    3.853927127561   -0.151896433287
 C   -2.492654255612    1.537120726940   -0.288141598245
 O   -2.322865542348    0.311522081618   -0.384112395010
 N   -3.729993599407    2.151243225509   -0.041762032030
 H   -4.497801760398    1.514942338284    0.160973186502
 C   -3.933869113828    3.519137690375    0.093367075526
 N   -2.968320960710    4.419197427038    0.068011759532
 N   -5.220839839995    3.917937149196    0.341766641006
 H   -5.988216003351    3.351111221090    0.004838274673
 H   -5.358184471812    4.921951228475    0.294636265217
