33

 N    0.676641918526   -4.711692726975   -0.019578336469
 C    1.911411918526   -4.141142726975    0.207851663531
 N    3.133251918526   -4.706412726975   -0.012058336469
 C    4.098801918526   -3.806352726975   -0.037418336469
 N    3.894921918526   -2.438462726975    0.097711663531
 H    4.662731918526   -1.802162726975   -0.105018336469
 N    5.385761918526   -4.205152726975   -0.285818336469
 H    6.153151918526   -3.638332726975    0.051111663531
 H    5.523111918526   -5.209172726975   -0.238688336469
 C    2.657581918526   -1.824342726975    0.344091663531
 O    2.487791918526   -0.598742726975    0.440061663531
 C    1.617651918526   -2.817122726975    0.548791663531
 N    0.248901918526   -2.539512726975    0.461301663531
 C   -0.275958081474   -3.728072726975    0.147131663531
 H   -1.341448081474   -3.928142726975    0.041141663531
 H    0.504361918526   -5.688182726975   -0.235518336469
RB   -0.186878081474    0.325447273025   -0.063398336469
 C   -1.512595037601    2.634169397242   -0.513150162912
 N   -0.143850905861    2.356562567600   -0.425660892342
 C    0.381002926546    3.545132766332   -0.111490293949
 H    1.446494524297    3.745195027698   -0.005501308205
 N   -0.571594082651    4.528740720040    0.055216345310
 H   -0.399309307308    5.505237371552    0.271160500523
 C   -1.806359683776    3.958196226571   -0.172208629904
 C   -2.552527772267    1.641389825950   -0.308453794862
 O   -2.382739059003    0.415791180627   -0.404424591627
 N   -3.789867116063    2.255512324518   -0.062074228647
 H   -4.557675277053    1.619211437293    0.140660989885
 C   -3.993742630483    3.623406789384    0.073054878909
 N   -3.028194477366    4.523466526048    0.047699562915
 N   -5.280713356651    4.022206248206    0.321454444389
 H   -6.048089520007    3.455380320100   -0.015473921944
 H   -5.418057988468    5.026220327484    0.274324068600
