33

 N    0.714969657879   -4.778440081611   -0.006575582979
 C    1.949739657879   -4.207890081611    0.220854417021
 N    3.171579657879   -4.773160081611    0.000944417021
 C    4.137129657879   -3.873100081611   -0.024415582979
 N    3.933249657879   -2.505210081611    0.110714417021
 H    4.701059657879   -1.868910081611   -0.092015582979
 N    5.424089657879   -4.271900081611   -0.272815582979
 H    6.191479657879   -3.705080081611    0.064114417021
 H    5.561439657879   -5.275920081611   -0.225685582979
 C    2.695909657879   -1.891090081611    0.357094417021
 O    2.526119657879   -0.665490081611    0.453064417021
 C    1.655979657879   -2.883870081611    0.561794417021
 N    0.287229657879   -2.606260081611    0.474304417021
 C   -0.237630342121   -3.794820081611    0.160134417021
 H   -1.303120342121   -3.994890081611    0.054144417021
 H    0.542689657879   -5.754930081611   -0.222515582979
RB   -0.148550342121    0.258699918389   -0.050395582979
 C   -1.572468554256    2.738438496252   -0.533462359529
 N   -0.203724422517    2.460831666610   -0.445973088959
 C    0.321129409890    3.649401865341   -0.131802490566
 H    1.386621007641    3.849464126708   -0.025813504822
 N   -0.631467599306    4.633009819049    0.034904148693
 H   -0.459182823964    5.609506470561    0.250848303906
 C   -1.866233200431    4.062465325580   -0.192520826521
 C   -2.612401288923    1.745658924959   -0.328765991479
 O   -2.442612575659    0.520060279637   -0.424736788244
 N   -3.849740632718    2.359781423528   -0.082386425264
 H   -4.617548793709    1.723480536303    0.120348793268
 C   -4.053616147138    3.727675888394    0.052742682292
 N   -3.088067994021    4.627735625057    0.027387366298
 N   -5.340586873306    4.126475347216    0.301142247772
 H   -6.107963036662    3.559649419109   -0.035786118561
 H   -5.477931505123    5.130489426494    0.254011871983
