33

 N    0.734133527556   -4.811813758929   -0.000074206234
 C    1.968903527556   -4.241263758929    0.227355793766
 N    3.190743527556   -4.806533758929    0.007445793766
 C    4.156293527556   -3.906473758929   -0.017914206234
 N    3.952413527556   -2.538583758929    0.117215793766
 H    4.720223527556   -1.902283758929   -0.085514206234
 N    5.443253527556   -4.305273758929   -0.266314206234
 H    6.210643527556   -3.738453758929    0.070615793766
 H    5.580603527556   -5.309293758929   -0.219184206234
 C    2.715073527556   -1.924463758929    0.363595793766
 O    2.545283527556   -0.698863758929    0.459565793766
 C    1.675143527556   -2.917243758929    0.568295793766
 N    0.306393527556   -2.639633758929    0.480805793766
 C   -0.218466472444   -3.828193758929    0.166635793766
 H   -1.283956472444   -4.028263758929    0.060645793766
 H    0.561853527556   -5.788303758929   -0.216014206234
RB   -0.129386472444    0.225326241071   -0.043894206234
 C   -1.602405312584    2.790573045757   -0.543618457837
 N   -0.233661180845    2.512966216114   -0.456129187267
 C    0.291192651562    3.701536414846   -0.141958588875
 H    1.356684249313    3.901598676213   -0.035969603130
 N   -0.661404357634    4.685144368554    0.024748050384
 H   -0.489119582292    5.661641020066    0.240692205597
 C   -1.896169958759    4.114599875085   -0.202676924830
 C   -2.642338047251    1.797793474464   -0.338922089788
 O   -2.472549333986    0.572194829142   -0.434892886552
 N   -3.879677391046    2.411915973033   -0.092542523573
 H   -4.647485552036    1.775615085808    0.110192694959
 C   -4.083552905466    3.779810437899    0.042586583983
 N   -3.118004752349    4.679870174562    0.017231267990
 N   -5.370523631634    4.178609896720    0.290986149463
 H   -6.137899794990    3.611783968614   -0.045942216870
 H   -5.507868263451    5.182623975999    0.243855773675
