33

 N    0.753297397233   -4.845187436247    0.006427170511
 C    1.988067397233   -4.274637436247    0.233857170511
 N    3.209907397233   -4.839907436247    0.013947170511
 C    4.175457397233   -3.939847436247   -0.011412829489
 N    3.971577397233   -2.571957436247    0.123717170511
 H    4.739387397233   -1.935657436247   -0.079012829489
 N    5.462417397233   -4.338647436247   -0.259812829489
 H    6.229807397233   -3.771827436247    0.077117170511
 H    5.599767397233   -5.342667436247   -0.212682829489
 C    2.734237397233   -1.957837436247    0.370097170511
 O    2.564447397233   -0.732237436247    0.466067170511
 C    1.694307397233   -2.950617436247    0.574797170511
 N    0.325557397233   -2.673007436247    0.487307170511
 C   -0.199302602767   -3.861567436247    0.173137170511
 H   -1.264792602767   -4.061637436247    0.067147170511
 H    0.581017397233   -5.821677436247   -0.209512829489
RB   -0.110222602767    0.191952563753   -0.037392829489
 C   -1.632342070912    2.842707595262   -0.553774556146
 N   -0.263597939172    2.565100765619   -0.466285285576
 C    0.261255893235    3.753670964351   -0.152114687183
 H    1.326747490986    3.953733225718   -0.046125701439
 N   -0.691341115962    4.737278918059    0.014591952076
 H   -0.519056340619    5.713775569571    0.230536107289
 C   -1.926106717087    4.166734424590   -0.212833023138
 C   -2.672274805578    1.849928023969   -0.349078188096
 O   -2.502486092314    0.624329378647   -0.445048984861
 N   -3.909614149374    2.464050522538   -0.102698621881
 H   -4.677422310364    1.827749635313    0.100036596651
 C   -4.113489663794    3.831944987404    0.032430485675
 N   -3.147941510676    4.732004724067    0.007075169681
 N   -5.400460389962    4.230744446225    0.280830051155
 H   -6.167836553318    3.663918518119   -0.056098315178
 H   -5.537805021779    5.234758525504    0.233699675366
