33

 N    0.810789006264   -4.945308468201    0.025931300746
 C    2.045559006264   -4.374758468201    0.253361300746
 N    3.267399006264   -4.940028468201    0.033451300746
 C    4.232949006264   -4.039968468201    0.008091300746
 N    4.029069006264   -2.672078468201    0.143221300746
 H    4.796879006264   -2.035778468201   -0.059508699254
 N    5.519909006264   -4.438768468201   -0.240308699254
 H    6.287299006264   -3.871948468201    0.096621300746
 H    5.657259006264   -5.442788468201   -0.193178699254
 C    2.791729006264   -2.057958468201    0.389601300746
 O    2.621939006264   -0.832358468201    0.485571300746
 C    1.751799006264   -3.050738468201    0.594301300746
 N    0.383049006264   -2.773128468201    0.506811300746
 C   -0.141810993736   -3.961688468201    0.192641300746
 H   -1.207300993736   -4.161758468201    0.086651300746
 H    0.638509006264   -5.921798468201   -0.190008699254
RB   -0.052730993736    0.091831531799   -0.017888699254
 C   -1.722152345895    2.999111243776   -0.584242851071
 N   -0.353408214156    2.721504414134   -0.496753580501
 C    0.171445618252    3.910074612866   -0.182582982109
 H    1.236937216002    4.110136874232   -0.076593996364
 N   -0.781151390945    4.893682566573   -0.015876342850
 H   -0.608866615603    5.870179218086    0.200067812363
 C   -2.015916992070    4.323138073105   -0.243301318064
 C   -2.762085080562    2.006331672484   -0.379546483022
 O   -2.592296367297    0.780733027161   -0.475517279786
 N   -3.999424424357    2.620454171052   -0.133166916807
 H   -4.767232585347    1.984153283827    0.069568301725
 C   -4.203299938777    3.988348635918    0.001962190749
 N   -3.237751785660    4.888408372582   -0.023393125244
 N   -5.490270664945    4.387148094740    0.250361756229
 H   -6.257646828301    3.820322166633   -0.086566610104
 H   -5.627615296762    5.391162174018    0.203231380441
