33

 N    0.829952875941   -4.978682145519    0.032432677490
 C    2.064722875941   -4.408132145519    0.259862677490
 N    3.286562875941   -4.973402145519    0.039952677490
 C    4.252112875941   -4.073342145519    0.014592677490
 N    4.048232875941   -2.705452145519    0.149722677490
 H    4.816042875941   -2.069152145519   -0.053007322510
 N    5.539072875941   -4.472142145519   -0.233807322510
 H    6.306462875941   -3.905322145519    0.103122677490
 H    5.676422875941   -5.476162145519   -0.186677322510
 C    2.810892875941   -2.091332145519    0.396102677490
 O    2.641102875941   -0.865732145519    0.492072677490
 C    1.770962875941   -3.084112145519    0.600802677490
 N    0.402212875941   -2.806502145519    0.513312677490
 C   -0.122647124059   -3.995062145519    0.199142677490
 H   -1.188137124059   -4.195132145519    0.093152677490
 H    0.657672875941   -5.955172145519   -0.183507322510
RB   -0.033567124059    0.058457854481   -0.011387322510
 C   -1.752089104223    3.051245793281   -0.594398949380
 N   -0.383344972483    2.773638963639   -0.506909678810
 C    0.141508859924    3.962209162370   -0.192739080417
 H    1.207000457675    4.162271423737   -0.086750094673
 N   -0.811088149273    4.945817116078   -0.026032441159
 H   -0.638803373930    5.922313767591    0.189911714054
 C   -2.045853750397    4.375272622609   -0.253457416372
 C   -2.792021838889    2.058466221989   -0.389702581330
 O   -2.622233125625    0.832867576666   -0.485673378095
 N   -4.029361182684    2.672588720557   -0.143323015115
 H   -4.797169343675    2.036287833332    0.059412203417
 C   -4.233236697105    4.040483185423   -0.008193907559
 N   -3.267688543987    4.940542922086   -0.033549223553
 N   -5.520207423273    4.439282644245    0.240205657921
 H   -6.287583586628    3.872456716138   -0.096722708412
 H   -5.657552055089    5.443296723523    0.193075282132
