33

 N    0.849116745618   -5.012055822837    0.038934054235
 C    2.083886745618   -4.441505822837    0.266364054235
 N    3.305726745618   -5.006775822837    0.046454054235
 C    4.271276745618   -4.106715822837    0.021094054235
 N    4.067396745618   -2.738825822837    0.156224054235
 H    4.835206745618   -2.102525822837   -0.046505945765
 N    5.558236745618   -4.505515822837   -0.227305945765
 H    6.325626745618   -3.938695822837    0.109624054235
 H    5.695586745618   -5.509535822837   -0.180175945765
 C    2.830056745618   -2.124705822837    0.402604054235
 O    2.660266745618   -0.899105822837    0.498574054235
 C    1.790126745618   -3.117485822837    0.607304054235
 N    0.421376745618   -2.839875822837    0.519814054235
 C   -0.103483254382   -4.028435822837    0.205644054235
 H   -1.168973254382   -4.228505822837    0.099654054235
 H    0.676836745618   -5.988545822837   -0.177005945765
RB   -0.014403254382    0.025084177163   -0.004885945765
 C   -1.782025862550    3.103380342786   -0.604555047688
 N   -0.413281730811    2.825773513144   -0.517065777118
 C    0.111572101596    4.014343711875   -0.202895178726
 H    1.177063699347    4.214405973242   -0.096906192981
 N   -0.841024907600    4.997951665583   -0.036188539467
 H   -0.668740132258    5.974448317095    0.179755615746
 C   -2.075790508725    4.427407172114   -0.263613514681
 C   -2.821958597217    2.110600771493   -0.399858679639
 O   -2.652169883953    0.885002126171   -0.495829476403
 N   -4.059297941012    2.724723270062   -0.153479113424
 H   -4.827106102003    2.088422382837    0.049256105108
 C   -4.263173455433    4.092617734928   -0.018350005868
 N   -3.297625302315    4.992677471591   -0.043705321861
 N   -5.550144181600    4.491417193749    0.230049559612
 H   -6.317520344956    3.924591265643   -0.106878806721
 H   -5.687488813417    5.495431273028    0.182919183824
