33

 N    0.868280615295   -5.045429500155    0.045435430980
 C    2.103050615295   -4.474879500155    0.272865430980
 N    3.324890615295   -5.040149500155    0.052955430980
 C    4.290440615295   -4.140089500155    0.027595430980
 N    4.086560615295   -2.772199500155    0.162725430980
 H    4.854370615295   -2.135899500155   -0.040004569020
 N    5.577400615295   -4.538889500155   -0.220804569020
 H    6.344790615295   -3.972069500155    0.116125430980
 H    5.714750615295   -5.542909500155   -0.173674569020
 C    2.849220615295   -2.158079500155    0.409105430980
 O    2.679430615295   -0.932479500155    0.505075430980
 C    1.809290615295   -3.150859500155    0.613805430980
 N    0.440540615295   -2.873249500155    0.526315430980
 C   -0.084319384705   -4.061809500155    0.212145430980
 H   -1.149809384705   -4.261879500155    0.106155430980
 H    0.696000615295   -6.021919500155   -0.170504569020
RB    0.004760615295   -0.008289500155    0.001615430980
 C   -1.811962620878    3.155514892291   -0.614711145997
 N   -0.443218489139    2.877908062648   -0.527221875427
 C    0.081635343268    4.066478261380   -0.213051277034
 H    1.147126941019    4.266540522747   -0.107062291290
 N   -0.870961665928    5.050086215088   -0.046344637776
 H   -0.698676890586    6.026582866600    0.169599517437
 C   -2.105727267053    4.479541721619   -0.273769612989
 C   -2.851895355545    2.162735320998   -0.410014777947
 O   -2.682106642281    0.937136675676   -0.505985574712
 N   -4.089234699340    2.776857819567   -0.163635211732
 H   -4.857042860330    2.140556932342    0.039100006800
 C   -4.293110213760    4.144752284433   -0.028506104176
 N   -3.327562060643    5.044812021096   -0.053861420170
 N   -5.580080939928    4.543551743254    0.219893461304
 H   -6.347457103284    3.976725815148   -0.117034905029
 H   -5.717425571745    5.547565822533    0.172763085515
