33

 N    0.983263833357   -5.245671564063    0.084443691450
 C    2.218033833357   -4.675121564063    0.311873691450
 N    3.439873833357   -5.240391564063    0.091963691450
 C    4.405423833357   -4.340331564063    0.066603691450
 N    4.201543833357   -2.972441564063    0.201733691450
 H    4.969353833357   -2.336141564063   -0.000996308550
 N    5.692383833357   -4.739131564063   -0.181796308550
 H    6.459773833357   -4.172311564063    0.155133691450
 H    5.829733833357   -5.743151564063   -0.134666308550
 C    2.964203833357   -2.358321564063    0.448113691450
 O    2.794413833357   -1.132721564063    0.544083691450
 C    1.924273833357   -3.351101564063    0.652813691450
 N    0.555523833357   -3.073491564063    0.565323691450
 C    0.030663833357   -4.262051564063    0.251153691450
 H   -1.034826166643   -4.462121564063    0.145163691450
 H    0.810983833357   -6.222161564063   -0.131496308550
RB    0.119743833357   -0.208531564063    0.040623691450
 C   -1.991583170844    3.468322189320   -0.675647735848
 N   -0.622839039105    3.190715359677   -0.588158465278
 C   -0.097985206698    4.379285558409   -0.273987866885
 H    0.967506391053    4.579347819776   -0.167998881141
 N   -1.050582215894    5.362893512117   -0.107281227627
 H   -0.878297440552    6.339390163629    0.108662927586
 C   -2.285347817019    4.792349018648   -0.334706202840
 C   -3.031515905511    2.475542618027   -0.470951367798
 O   -2.861727192247    1.249943972705   -0.566922164563
 N   -4.268855249306    3.089665116596   -0.224571801583
 H   -5.036663410297    2.453364229371   -0.021836583051
 C   -4.472730763727    4.457559581462   -0.089442694027
 N   -3.507182610609    5.357619318125   -0.114798010021
 N   -5.759701489895    4.856359040283    0.158956871453
 H   -6.527077653250    4.289533112177   -0.177971494880
 H   -5.897046121711    5.860373119562    0.111826495664
