33

 N    1.079083181741   -5.412539950653    0.116950575175
 C    2.313853181741   -4.841989950653    0.344380575175
 N    3.535693181741   -5.407259950653    0.124470575175
 C    4.501243181741   -4.507199950653    0.099110575175
 N    4.297363181741   -3.139309950653    0.234240575175
 H    5.065173181741   -2.503009950653    0.031510575175
 N    5.788203181741   -4.905999950653   -0.149289424825
 H    6.555593181741   -4.339179950653    0.187640575175
 H    5.925553181741   -5.910019950653   -0.102159424825
 C    3.060023181741   -2.525189950653    0.480620575175
 O    2.890233181741   -1.299589950653    0.576590575175
 C    2.020093181741   -3.517969950653    0.685320575175
 N    0.651343181741   -3.240359950653    0.597830575175
 C    0.126483181741   -4.428919950653    0.283660575175
 H   -0.939006818259   -4.628989950653    0.177670575175
 H    0.906803181741   -6.389029950653   -0.098989424825
RB    0.215563181741   -0.375399950653    0.073130575175
 C   -2.141266962483    3.728994936844   -0.726428227391
 N   -0.772522830744    3.451388107202   -0.638938956820
 C   -0.247668998337    4.639958305933   -0.324768358428
 H    0.817822599414    4.840020567300   -0.218779372683
 N   -1.200266007533    5.623566259641   -0.158061719169
 H   -1.027981232191    6.600062911154    0.057882436044
 C   -2.435031608658    5.053021766172   -0.385486694383
 C   -3.181199697150    2.736215365552   -0.521731859341
 O   -3.011410983886    1.510616720229   -0.617702656105
 N   -4.418539040945    3.350337864120   -0.275352293126
 H   -5.186347201935    2.714036976895   -0.072617074594
 C   -4.622414555365    4.718232328986   -0.140223185570
 N   -3.656866402248    5.618292065649   -0.165578501563
 N   -5.909385281533    5.117031787808    0.108176379910
 H   -6.676761444889    4.550205859701   -0.228751986423
 H   -6.046729913350    6.121045867086    0.061046004122
