33

 N    1.098247051418   -5.445913627971    0.123451951919
 C    2.333017051418   -4.875363627971    0.350881951919
 N    3.554857051418   -5.440633627971    0.130971951919
 C    4.520407051418   -4.540573627971    0.105611951919
 N    4.316527051418   -3.172683627971    0.240741951919
 H    5.084337051418   -2.536383627971    0.038011951919
 N    5.807367051418   -4.939373627971   -0.142788048081
 H    6.574757051418   -4.372553627971    0.194141951919
 H    5.944717051418   -5.943393627971   -0.095658048081
 C    3.079187051418   -2.558563627971    0.487121951919
 O    2.909397051418   -1.332963627971    0.583091951919
 C    2.039257051418   -3.551343627971    0.691821951919
 N    0.670507051418   -3.273733627971    0.604331951919
 C    0.145647051418   -4.462293627971    0.290161951919
 H   -0.919842948582   -4.662363627971    0.184171951919
 H    0.925967051418   -6.422403627971   -0.092488048081
RB    0.234727051418   -0.408773627971    0.079631951919
 C   -2.171203720811    3.781129486349   -0.736584325699
 N   -0.802459589072    3.503522656707   -0.649095055129
 C   -0.277605756664    4.692092855438   -0.334924456736
 H    0.787885841086    4.892155116805   -0.228935470992
 N   -1.230202765861    5.675700809146   -0.168217817478
 H   -1.057917990519    6.652197460658    0.047726337735
 C   -2.464968366986    5.105156315677   -0.395642792691
 C   -3.211136455478    2.788349915056   -0.531887957649
 O   -3.041347742213    1.562751269734   -0.627858754414
 N   -4.448475799273    3.402472413625   -0.285508391434
 H   -5.216283960263    2.766171526400   -0.082773172903
 C   -4.652351313693    4.770366878491   -0.150379283878
 N   -3.686803160576    5.670426615154   -0.175734599872
 N   -5.939322039861    5.169166337312    0.098020281602
 H   -6.706698203217    4.602340409206   -0.238908084731
 H   -6.076666671678    6.173180416591    0.050889905813
