33

 N    1.155738660449   -5.546034659925    0.142956082154
 C    2.390508660449   -4.975484659925    0.370386082154
 N    3.612348660449   -5.540754659925    0.150476082154
 C    4.577898660449   -4.640694659925    0.125116082154
 N    4.374018660449   -3.272804659925    0.260246082154
 H    5.141828660449   -2.636504659925    0.057516082154
 N    5.864858660449   -5.039494659925   -0.123283917846
 H    6.632248660449   -4.472674659925    0.213646082154
 H    6.002208660449   -6.043514659925   -0.076153917846
 C    3.136678660449   -2.658684659925    0.506626082154
 O    2.966888660449   -1.433084659925    0.602596082154
 C    2.096748660449   -3.651464659925    0.711326082154
 N    0.727998660449   -3.373854659925    0.623836082154
 C    0.203138660449   -4.562414659925    0.309666082154
 H   -0.862351339551   -4.762484659925    0.203676082154
 H    0.983458660449   -6.522524659925   -0.072983917846
RB    0.292218660449   -0.508894659925    0.099136082154
 C   -2.261013995794    3.937533134864   -0.767052620625
 N   -0.892269864055    3.659926305221   -0.679563350054
 C   -0.367416031648    4.848496503953   -0.365392751662
 H    0.698075566103    5.048558765319   -0.259403765917
 N   -1.320013040844    5.832104457661   -0.198686112403
 H   -1.147728265502    6.808601109173    0.017258042810
 C   -2.554778641969    5.261559964192   -0.426111087617
 C   -3.300946730461    2.944753563571   -0.562356252575
 O   -3.131158017197    1.719154918248   -0.658327049340
 N   -4.538286074256    3.558876062140   -0.315976686360
 H   -5.306094235246    2.922575174915   -0.113241467828
 C   -4.742161588676    4.926770527006   -0.180847578804
 N   -3.776613435559    5.826830263669   -0.206202894797
 N   -6.029132314844    5.325569985827    0.067551986676
 H   -6.796508478200    4.758744057721   -0.269376379657
 H   -6.166476946661    6.329584065105    0.020421610888
