33

 N    1.213230269480   -5.646155691879    0.162460212389
 C    2.448000269480   -5.075605691879    0.389890212389
 N    3.669840269480   -5.640875691879    0.169980212389
 C    4.635390269480   -4.740815691879    0.144620212389
 N    4.431510269480   -3.372925691879    0.279750212389
 H    5.199320269480   -2.736625691879    0.077020212389
 N    5.922350269480   -5.139615691879   -0.103779787611
 H    6.689740269480   -4.572795691879    0.233150212389
 H    6.059700269480   -6.143635691879   -0.056649787611
 C    3.194170269480   -2.758805691879    0.526130212389
 O    3.024380269480   -1.533205691879    0.622100212389
 C    2.154240269480   -3.751585691879    0.730830212389
 N    0.785490269480   -3.473975691879    0.643340212389
 C    0.260630269480   -4.662535691879    0.329170212389
 H   -0.804859730520   -4.862605691879    0.223180212389
 H    1.040950269480   -6.622645691879   -0.053479787611
RB    0.349710269480   -0.609015691879    0.118640212389
 C   -2.350824270777    4.093936783378   -0.797520915550
 N   -0.982080139038    3.816329953736   -0.710031644980
 C   -0.457226306631    5.004900152467   -0.395861046587
 H    0.608265291120    5.204962413834   -0.289872060843
 N   -1.409823315827    5.988508106175   -0.229154407329
 H   -1.237538540485    6.965004757687   -0.013210252116
 C   -2.644588916952    5.417963612706   -0.456579382542
 C   -3.390757005444    3.101157212085   -0.592824547500
 O   -3.220968292180    1.875558566763   -0.688795344265
 N   -4.628096349239    3.715279710654   -0.346444981285
 H   -5.395904510230    3.078978823429   -0.143709762754
 C   -4.831971863659    5.083174175520   -0.211315873730
 N   -3.866423710542    5.983233912183   -0.236671189723
 N   -6.118942589827    5.481973634342    0.037083691751
 H   -6.886318753183    4.915147706235   -0.299844674582
 H   -6.256287221644    6.485987713620   -0.010046684038
