33

 N    1.232394139157   -5.679529369197    0.168961589134
 C    2.467164139157   -5.108979369197    0.396391589134
 N    3.689004139157   -5.674249369197    0.176481589134
 C    4.654554139157   -4.774189369197    0.151121589134
 N    4.450674139157   -3.406299369197    0.286251589134
 H    5.218484139157   -2.769999369197    0.083521589134
 N    5.941514139157   -5.172989369197   -0.097278410866
 H    6.708904139157   -4.606169369197    0.239651589134
 H    6.078864139157   -6.177009369197   -0.050148410866
 C    3.213334139157   -2.792179369197    0.532631589134
 O    3.043544139157   -1.566579369197    0.628601589134
 C    2.173404139157   -3.784959369197    0.737331589134
 N    0.804654139157   -3.507349369197    0.649841589134
 C    0.279794139157   -4.695909369197    0.335671589134
 H   -0.785695860843   -4.895979369197    0.229681589134
 H    1.060114139157   -6.656019369197   -0.046978410866
RB    0.368874139157   -0.642389369197    0.125141589134
 C   -2.380761029105    4.146071332883   -0.807677013859
 N   -1.012016897366    3.868464503240   -0.720187743288
 C   -0.487163064959    5.057034701972   -0.406017144896
 H    0.578328532792    5.257096963339   -0.300028159152
 N   -1.439760074155    6.040642655680   -0.239310505637
 H   -1.267475298813    7.017139307192   -0.023366350424
 C   -2.674525675280    5.470098162211   -0.466735480851
 C   -3.420693763772    3.153291761590   -0.602980645809
 O   -3.250905050507    1.927693116268   -0.698951442574
 N   -4.658033107567    3.767414260159   -0.356601079594
 H   -5.425841268557    3.131113372934   -0.153865861062
 C   -4.861908621987    5.135308725025   -0.221471972038
 N   -3.896360468870    6.035368461688   -0.246827288031
 N   -6.148879348155    5.534108183846    0.026927593442
 H   -6.916255511511    4.967282255740   -0.310000772891
 H   -6.286223979972    6.538122263125   -0.020202782347
