33

 N    1.309049617865   -5.813024078470    0.194967096114
 C    2.543819617865   -5.242474078470    0.422397096114
 N    3.765659617865   -5.807744078470    0.202487096114
 C    4.731209617865   -4.907684078470    0.177127096114
 N    4.527329617865   -3.539794078470    0.312257096114
 H    5.295139617865   -2.903494078470    0.109527096114
 N    6.018169617865   -5.306484078470   -0.071272903886
 H    6.785559617865   -4.739664078470    0.265657096114
 H    6.155519617865   -6.310504078470   -0.024142903886
 C    3.289989617865   -2.925674078470    0.558637096114
 O    3.120199617865   -1.700074078470    0.654607096114
 C    2.250059617865   -3.918454078470    0.763337096114
 N    0.881309617865   -3.640844078470    0.675847096114
 C    0.356449617865   -4.829404078470    0.361677096114
 H   -0.709040382135   -5.029474078470    0.255687096114
 H    1.136769617865   -6.789514078470   -0.020972903886
RB    0.445529617865   -0.775884078470    0.151147096114
 C   -2.500508062416    4.354609530902   -0.848301407093
 N   -1.131763930677    4.077002701260   -0.760812136522
 C   -0.606910098269    5.265572899992   -0.446641538130
 H    0.458581499481    5.465635161358   -0.340652552386
 N   -1.559507107466    6.249180853699   -0.279934898871
 H   -1.387222332124    7.225677505212   -0.063990743658
 C   -2.794272708591    5.678636360231   -0.507359874085
 C   -3.540440797083    3.361829959610   -0.643605039043
 O   -3.370652083818    2.136231314287   -0.739575835808
 N   -4.777780140878    3.975952458178   -0.397225472828
 H   -5.545588301868    3.339651570953   -0.194490254296
 C   -4.981655655298    5.343846923044   -0.262096365272
 N   -4.016107502181    6.243906659708   -0.287451681266
 N   -6.268626381466    5.742646381866   -0.013696799792
 H   -7.036002544822    5.175820453760   -0.350625166125
 H   -6.405971013283    6.746660461144   -0.060827175581
