33

 N    1.462360575280   -6.080013497014    0.246978110073
 C    2.697130575280   -5.509463497014    0.474408110073
 N    3.918970575280   -6.074733497014    0.254498110073
 C    4.884520575280   -5.174673497014    0.229138110073
 N    4.680640575280   -3.806783497014    0.364268110073
 H    5.448450575280   -3.170483497014    0.161538110073
 N    6.171480575280   -5.573473497014   -0.019261889927
 H    6.938870575280   -5.006653497014    0.317668110073
 H    6.308830575280   -6.577493497014    0.027868110073
 C    3.443300575280   -3.192663497014    0.610648110073
 O    3.273510575280   -1.967063497014    0.706618110073
 C    2.403370575280   -4.185443497014    0.815348110073
 N    1.034620575280   -3.907833497014    0.727858110073
 C    0.509760575280   -5.096393497014    0.413688110073
 H   -0.555729424720   -5.296463497014    0.307698110073
 H    1.290080575280   -7.056503497014    0.031038110073
RB    0.598840575280   -1.042873497014    0.203158110073
 C   -2.740002129038    4.771685926941   -0.929550193561
 N   -1.371257997298    4.494079097299   -0.842060922990
 C   -0.846404164891    5.682649296030   -0.527890324598
 H    0.219087432860    5.882711557397   -0.421901338854
 N   -1.799001174088    6.666257249738   -0.361183685339
 H   -1.626716398745    7.642753901250   -0.145239530126
 C   -3.033766775213    6.095712756269   -0.588608660553
 C   -3.779934863704    3.778906355648   -0.724853825511
 O   -3.610146150440    2.553307710326   -0.820824622276
 N   -5.017274207500    4.393028854217   -0.478474259296
 H   -5.785082368490    3.756727966992   -0.275739040764
 C   -5.221149721920    5.760923319083   -0.343345151740
 N   -4.255601568803    6.660983055746   -0.368700467734
 N   -6.508120448088    6.159722777905   -0.094945586260
 H   -7.275496611444    5.592896849798   -0.431873952593
 H   -6.645465079905    7.163736857183   -0.142075962049
