33

 N    1.519852184311   -6.180134528968    0.266482240308
 C    2.754622184311   -5.609584528968    0.493912240308
 N    3.976462184311   -6.174854528968    0.274002240308
 C    4.942012184311   -5.274794528968    0.248642240308
 N    4.738132184311   -3.906904528968    0.383772240308
 H    5.505942184311   -3.270604528968    0.181042240308
 N    6.228972184311   -5.673594528968    0.000242240308
 H    6.996362184311   -5.106774528968    0.337172240308
 H    6.366322184311   -6.677614528968    0.047372240308
 C    3.500792184311   -3.292784528968    0.630152240308
 O    3.331002184311   -2.067184528968    0.726122240308
 C    2.460862184311   -4.285564528968    0.834852240308
 N    1.092112184311   -4.007954528968    0.747362240308
 C    0.567252184311   -5.196514528968    0.433192240308
 H   -0.498237815689   -5.396584528968    0.327202240308
 H    1.347572184311   -7.156624528968    0.050542240308
RB    0.656332184311   -1.142994528968    0.222662240308
 C   -2.829812404021    4.928089575456   -0.960018488486
 N   -1.461068272282    4.650482745813   -0.872529217916
 C   -0.936214439875    5.839052944545   -0.558358619523
 H    0.129277157876    6.039115205912   -0.452369633779
 N   -1.888811449071    6.822660898253   -0.391651980265
 H   -1.716526673729    7.799157549765   -0.175707825052
 C   -3.123577050196    6.252116404784   -0.619076955479
 C   -3.869745138688    3.935310004163   -0.755322120436
 O   -3.699956425423    2.709711358840   -0.851292917201
 N   -5.107084482483    4.549432502732   -0.508942554221
 H   -5.874892643473    3.913131615507   -0.306207335690
 C   -5.310959996903    5.917326967598   -0.373813446666
 N   -4.345411843786    6.817386704261   -0.399168762659
 N   -6.597930723071    6.316126426419   -0.125413881186
 H   -7.365306886427    5.749300498313   -0.462342247519
 H   -6.735275354888    7.320140505697   -0.172544256974
