33

 N    1.634835402373   -6.380376592876    0.305490500778
 C    2.869605402373   -5.809826592876    0.532920500778
 N    4.091445402373   -6.375096592876    0.313010500778
 C    5.056995402373   -5.475036592876    0.287650500778
 N    4.853115402373   -4.107146592876    0.422780500778
 H    5.620925402373   -3.470846592876    0.220050500778
 N    6.343955402373   -5.873836592876    0.039250500778
 H    7.111345402373   -5.307016592876    0.376180500778
 H    6.481305402373   -6.877856592876    0.086380500778
 C    3.615775402373   -3.493026592876    0.669160500778
 O    3.445985402373   -2.267426592876    0.765130500778
 C    2.575845402373   -4.485806592876    0.873860500778
 N    1.207095402373   -4.208196592876    0.786370500778
 C    0.682235402373   -5.396756592876    0.472200500778
 H   -0.383254597627   -5.596826592876    0.366210500778
 H    1.462555402373   -7.356866592876    0.089550500778
RB    0.771315402373   -1.343236592876    0.261670500778
 C   -3.009432953987    5.240896872485   -1.020955078337
 N   -1.640688822248    4.963290042842   -0.933465807767
 C   -1.115834989841    6.151860241574   -0.619295209374
 H   -0.050343392090    6.351922502941   -0.513306223630
 N   -2.068431999037    7.135468195282   -0.452588570116
 H   -1.896147223695    8.111964846794   -0.236644414903
 C   -3.303197600162    6.564923701813   -0.680013545330
 C   -4.049365688654    4.248117301192   -0.816258710288
 O   -3.879576975390    3.022518655870   -0.912229507052
 N   -5.286705032449    4.862239799761   -0.569879144073
 H   -6.054513193440    4.225938912536   -0.367143925541
 C   -5.490580546870    6.230134264627   -0.434750036517
 N   -4.525032393752    7.130194001290   -0.460105352510
 N   -6.777551273037    6.628933723448   -0.186350471037
 H   -7.544927436393    6.062107795342   -0.523278837370
 H   -6.914895904854    7.632947802727   -0.233480846825
