33

 N    1.711490881081   -6.513871302148    0.331496007757
 C    2.946260881081   -5.943321302148    0.558926007757
 N    4.168100881081   -6.508591302148    0.339016007757
 C    5.133650881081   -5.608531302148    0.313656007757
 N    4.929770881081   -4.240641302148    0.448786007757
 H    5.697580881081   -3.604341302148    0.246056007757
 N    6.420610881081   -6.007331302148    0.065256007757
 H    7.188000881081   -5.440511302148    0.402186007757
 H    6.557960881081   -7.011351302148    0.112386007757
 C    3.692430881081   -3.626521302148    0.695166007757
 O    3.522640881081   -2.400921302148    0.791136007757
 C    2.652500881081   -4.619301302148    0.899866007757
 N    1.283750881081   -4.341691302148    0.812376007757
 C    0.758890881081   -5.530251302148    0.498206007757
 H   -0.306599118919   -5.730321302148    0.392216007757
 H    1.539210881081   -7.490361302148    0.115556007757
RB    0.847970881081   -1.476731302148    0.287676007757
 C   -3.129179987298    5.449435070504   -1.061579471571
 N   -1.760435855559    5.171828240862   -0.974090201001
 C   -1.235582023152    6.360398439593   -0.659919602609
 H   -0.170090425401    6.560460700960   -0.553930616864
 N   -2.188179032348    7.344006393301   -0.493212963350
 H   -2.015894257006    8.320503044813   -0.277268808137
 C   -3.422944633473    6.773461899832   -0.720637938564
 C   -4.169112721965    4.456655499211   -0.856883103522
 O   -3.999324008701    3.231056853889   -0.952853900286
 N   -5.406452065760    5.070777997780   -0.610503537307
 H   -6.174260226751    4.434477110555   -0.407768318775
 C   -5.610327580181    6.438672462646   -0.475374429751
 N   -4.644779427063    7.338732199309   -0.500729745744
 N   -6.897298306348    6.837471921468   -0.226974864271
 H   -7.664674469704    6.270645993361   -0.563903230604
 H   -7.034642938165    7.841486000746   -0.274105240059
