33

 N    1.749818620434   -6.580618656784    0.344498761247
 C    2.984588620434   -6.010068656784    0.571928761247
 N    4.206428620434   -6.575338656784    0.352018761247
 C    5.171978620434   -5.675278656784    0.326658761247
 N    4.968098620434   -4.307388656784    0.461788761247
 H    5.735908620434   -3.671088656784    0.259058761247
 N    6.458938620434   -6.074078656784    0.078258761247
 H    7.226328620434   -5.507258656784    0.415188761247
 H    6.596288620434   -7.078098656784    0.125388761247
 C    3.730758620434   -3.693268656784    0.708168761247
 O    3.560968620434   -2.467668656784    0.804138761247
 C    2.690828620434   -4.686048656784    0.912868761247
 N    1.322078620434   -4.408438656784    0.825378761247
 C    0.797218620434   -5.596998656784    0.511208761247
 H   -0.268271379566   -5.797068656784    0.405218761247
 H    1.577538620434   -7.557108656784    0.128558761247
RB    0.886298620434   -1.543478656784    0.300678761247
 C   -3.189053503954    5.553704169514   -1.081891668188
 N   -1.820309372214    5.276097339871   -0.994402397618
 C   -1.295455539807    6.464667538603   -0.680231799226
 H   -0.229963942056    6.664729799970   -0.574242813481
 N   -2.248052549004    7.448275492311   -0.513525159967
 H   -2.075767773661    8.424772143823   -0.297581004754
 C   -3.482818150129    6.877730998842   -0.740950135181
 C   -4.228986238620    4.560924598221   -0.877195300139
 O   -4.059197525356    3.335325952899   -0.973166096903
 N   -5.466325582416    5.175047096790   -0.630815733924
 H   -6.234133743406    4.538746209565   -0.428080515392
 C   -5.670201096836    6.542941561656   -0.495686626368
 N   -4.704652943719    7.443001298319   -0.521041942361
 N   -6.957171823004    6.941741020477   -0.247287060888
 H   -7.724547986360    6.374915092371   -0.584215427221
 H   -7.094516454821    7.945755099756   -0.294417436676
