33

 N    1.807310229465   -6.680739688738    0.364002891482
 C    3.042080229465   -6.110189688738    0.591432891482
 N    4.263920229465   -6.675459688738    0.371522891482
 C    5.229470229465   -5.775399688738    0.346162891482
 N    5.025590229465   -4.407509688738    0.481292891482
 H    5.793400229465   -3.771209688738    0.278562891482
 N    6.516430229465   -6.174199688738    0.097762891482
 H    7.283820229465   -5.607379688738    0.434692891482
 H    6.653780229465   -7.178219688738    0.144892891482
 C    3.788250229465   -3.793389688738    0.727672891482
 O    3.618460229465   -2.567789688738    0.823642891482
 C    2.748320229465   -4.786169688738    0.932372891482
 N    1.379570229465   -4.508559688738    0.844882891482
 C    0.854710229465   -5.697119688738    0.530712891482
 H   -0.210779770535   -5.897189688738    0.424722891482
 H    1.635030229465   -7.657229688738    0.148062891482
RB    0.943790229465   -1.643599688738    0.320182891482
 C   -3.278863778937    5.710107818028   -1.112359963114
 N   -1.910119647198    5.432500988386   -1.024870692544
 C   -1.385265814791    6.621071187118   -0.710700094151
 H   -0.319774217040    6.821133448484   -0.604711108407
 N   -2.337862823987    7.604679140825   -0.543993454893
 H   -2.165578048645    8.581175792338   -0.328049299679
 C   -3.572628425112    7.034134647357   -0.771418430106
 C   -4.318796513604    4.717328246736   -0.907663595064
 O   -4.149007800339    3.491729601413   -1.003634391829
 N   -5.556135857399    5.331450745304   -0.661284028849
 H   -6.323944018389    4.695149858079   -0.458548810317
 C   -5.760011371819    6.699345210170   -0.526154921293
 N   -4.794463218702    7.599404946834   -0.551510237287
 N   -7.046982097987    7.098144668992   -0.277755355813
 H   -7.814358261343    6.531318740886   -0.614683722146
 H   -7.184326729804    8.102158748270   -0.324885731602
