33

 N    1.826474099142   -6.714113366056    0.370504268227
 C    3.061244099142   -6.143563366056    0.597934268227
 N    4.283084099142   -6.708833366056    0.378024268227
 C    5.248634099142   -5.808773366056    0.352664268227
 N    5.044754099142   -4.440883366056    0.487794268227
 H    5.812564099142   -3.804583366056    0.285064268227
 N    6.535594099142   -6.207573366056    0.104264268227
 H    7.302984099142   -5.640753366056    0.441194268227
 H    6.672944099142   -7.211593366056    0.151394268227
 C    3.807414099142   -3.826763366056    0.734174268227
 O    3.637624099142   -2.601163366056    0.830144268227
 C    2.767484099142   -4.819543366056    0.938874268227
 N    1.398734099142   -4.541933366056    0.851384268227
 C    0.873874099142   -5.730493366056    0.537214268227
 H   -0.191615900858   -5.930563366056    0.431224268227
 H    1.654194099142   -7.690603366056    0.154564268227
RB    0.962954099142   -1.676973366056    0.326684268227
 C   -3.308800537265    5.762242367533   -1.122516061422
 N   -1.940056405525    5.484635537891   -1.035026790852
 C   -1.415202573118    6.673205736623   -0.720856192460
 H   -0.349710975367    6.873267997989   -0.614867206715
 N   -2.367799582315    7.656813690330   -0.554149553201
 H   -2.195514806972    8.633310341843   -0.338205397988
 C   -3.602565183440    7.086269196862   -0.781574528415
 C   -4.348733271931    4.769462796241   -0.917819693373
 O   -4.178944558667    3.543864150918   -1.013790490137
 N   -5.586072615727    5.383585294809   -0.671440127158
 H   -6.353880776717    4.747284407584   -0.468704908626
 C   -5.789948130147    6.751479759675   -0.536311019602
 N   -4.824399977029    7.651539496339   -0.561666335595
 N   -7.076918856315    7.150279218497   -0.287911454122
 H   -7.844295019671    6.583453290390   -0.624839820455
 H   -7.214263488132    8.154293297775   -0.335041829910
