33

 N    1.845637968819   -6.747487043374    0.377005644972
 C    3.080407968819   -6.176937043374    0.604435644972
 N    4.302247968819   -6.742207043374    0.384525644972
 C    5.267797968819   -5.842147043374    0.359165644972
 N    5.063917968819   -4.474257043374    0.494295644972
 H    5.831727968819   -3.837957043374    0.291565644972
 N    6.554757968819   -6.240947043374    0.110765644972
 H    7.322147968819   -5.674127043374    0.447695644972
 H    6.692107968819   -7.244967043374    0.157895644972
 C    3.826577968819   -3.860137043374    0.740675644972
 O    3.656787968819   -2.634537043374    0.836645644972
 C    2.786647968819   -4.852917043374    0.945375644972
 N    1.417897968819   -4.575307043374    0.857885644972
 C    0.893037968819   -5.763867043374    0.543715644972
 H   -0.172452031181   -5.963937043374    0.437725644972
 H    1.673357968819   -7.723977043374    0.161065644972
RB    0.982117968819   -1.710347043374    0.333185644972
 C   -3.338737295592    5.814376917038   -1.132672159731
 N   -1.969993163853    5.536770087396   -1.045182889161
 C   -1.445139331446    6.725340286127   -0.731012290768
 H   -0.379647733695    6.925402547494   -0.625023305024
 N   -2.397736340642    7.708948239835   -0.564305651510
 H   -2.225451565300    8.685444891347   -0.348361496296
 C   -3.632501941767    7.138403746366   -0.791730626723
 C   -4.378670030259    4.821597345745   -0.927975791681
 O   -4.208881316995    3.595998700423   -1.023946588446
 N   -5.616009374054    5.435719844314   -0.681596225466
 H   -6.383817535045    4.799418957089   -0.478861006934
 C   -5.819884888475    6.803614309180   -0.546467117910
 N   -4.854336735357    7.703674045843   -0.571822433904
 N   -7.106855614642    7.202413768002   -0.298067552430
 H   -7.874231777998    6.635587839895   -0.634995918763
 H   -7.244200246459    8.206427847280   -0.345197928219
