33

 N    1.883965708173   -6.814234398010    0.390008398462
 C    3.118735708173   -6.243684398010    0.617438398462
 N    4.340575708173   -6.808954398010    0.397528398462
 C    5.306125708173   -5.908894398010    0.372168398462
 N    5.102245708173   -4.541004398010    0.507298398462
 H    5.870055708173   -3.904704398010    0.304568398462
 N    6.593085708173   -6.307694398010    0.123768398462
 H    7.360475708173   -5.740874398010    0.460698398462
 H    6.730435708173   -7.311714398010    0.170898398462
 C    3.864905708173   -3.926884398010    0.753678398462
 O    3.695115708173   -2.701284398010    0.849648398462
 C    2.824975708173   -4.919664398010    0.958378398462
 N    1.456225708173   -4.642054398010    0.870888398462
 C    0.931365708173   -5.830614398010    0.556718398462
 H   -0.134124291827   -6.030684398010    0.450728398462
 H    1.711685708173   -7.790724398010    0.174068398462
RB    1.020445708173   -1.777094398010    0.346188398462
 C   -3.398610812248    5.918646016048   -1.152984356348
 N   -2.029866680509    5.641039186405   -1.065495085778
 C   -1.505012848101    6.829609385137   -0.751324487385
 H   -0.439521250351    7.029671646504   -0.645335501641
 N   -2.457609857298    7.813217338845   -0.584617848127
 H   -2.285325081956    8.789713990357   -0.368673692914
 C   -3.692375458423    7.242672845376   -0.812042823340
 C   -4.438543546915    4.925866444755   -0.948287988298
 O   -4.268754833650    3.700267799433   -1.044258785063
 N   -5.675882890710    5.539988943324   -0.701908422083
 H   -6.443691051700    4.903688056099   -0.499173203551
 C   -5.879758405130    6.907883408190   -0.566779314527
 N   -4.914210252013    7.807943144853   -0.592134630521
 N   -7.166729131298    7.306682867011   -0.318379749047
 H   -7.934105294654    6.739856938905   -0.655308115380
 H   -7.304073763115    8.310696946290   -0.365510124836
