33

 N    1.903129577850   -6.847608075328    0.396509775207
 C    3.137899577850   -6.277058075328    0.623939775207
 N    4.359739577850   -6.842328075328    0.404029775207
 C    5.325289577850   -5.942268075328    0.378669775207
 N    5.121409577850   -4.574378075328    0.513799775207
 H    5.889219577850   -3.938078075328    0.311069775207
 N    6.612249577850   -6.341068075328    0.130269775207
 H    7.379639577850   -5.774248075328    0.467199775207
 H    6.749599577850   -7.345088075328    0.177399775207
 C    3.884069577850   -3.960258075328    0.760179775207
 O    3.714279577850   -2.734658075328    0.856149775207
 C    2.844139577850   -4.953038075328    0.964879775207
 N    1.475389577850   -4.675428075328    0.877389775207
 C    0.950529577850   -5.863988075328    0.563219775207
 H   -0.114960422150   -6.064058075328    0.457229775207
 H    1.730849577850   -7.824098075328    0.180569775207
RB    1.039609577850   -1.810468075328    0.352689775207
 C   -3.428547570576    5.970780565553   -1.163140454656
 N   -2.059803438836    5.693173735910   -1.075651184086
 C   -1.534949606429    6.881743934642   -0.761480585694
 H   -0.469458008678    7.081806196009   -0.655491599949
 N   -2.487546615626    7.865351888350   -0.594773946435
 H   -2.315261840283    8.841848539862   -0.378829791222
 C   -3.722312216750    7.294807394881   -0.822198921649
 C   -4.468480305242    4.978000994260   -0.958444086607
 O   -4.298691591978    3.752402348937   -1.054414883371
 N   -5.705819649037    5.592123492829   -0.712064520392
 H   -6.473627810028    4.955822605604   -0.509329301860
 C   -5.909695163458    6.960017957695   -0.576935412836
 N   -4.944147010340    7.860077694358   -0.602290728829
 N   -7.196665889626    7.358817416516   -0.328535847356
 H   -7.964042052981    6.791991488410   -0.665464213689
 H   -7.334010521442    8.362831495794   -0.375666223144
