33

 N    1.941457317204   -6.914355429964    0.409512528696
 C    3.176227317204   -6.343805429964    0.636942528696
 N    4.398067317204   -6.909075429964    0.417032528696
 C    5.363617317204   -6.009015429964    0.391672528696
 N    5.159737317204   -4.641125429964    0.526802528696
 H    5.927547317204   -4.004825429964    0.324072528696
 N    6.650577317204   -6.407815429964    0.143272528696
 H    7.417967317204   -5.840995429964    0.480202528696
 H    6.787927317204   -7.411835429964    0.190402528696
 C    3.922397317204   -4.027005429964    0.773182528696
 O    3.752607317204   -2.801405429964    0.869152528696
 C    2.882467317204   -5.019785429964    0.977882528696
 N    1.513717317204   -4.742175429964    0.890392528696
 C    0.988857317204   -5.930735429964    0.576222528696
 H   -0.076632682796   -6.130805429964    0.470232528696
 H    1.769177317204   -7.890845429964    0.193572528696
RB    1.077937317204   -1.877215429964    0.365692528696
 C   -3.488421087231    6.075049664562   -1.183452651273
 N   -2.119676955492    5.797442834920   -1.095963380703
 C   -1.594823123085    6.986013033652   -0.781792782311
 H   -0.529331525334    7.186075295018   -0.675803796566
 N   -2.547420132281    7.969620987359   -0.615086143052
 H   -2.375135356939    8.946117638872   -0.399141987839
 C   -3.782185733406    7.399076493891   -0.842511118266
 C   -4.528353821898    5.082270093270   -0.978756283224
 O   -4.358565108634    3.856671447947   -1.074727079988
 N   -5.765693165693    5.696392591838   -0.732376717009
 H   -6.533501326683    5.060091704613   -0.529641498477
 C   -5.969568680113    7.064287056704   -0.597247609453
 N   -5.004020526996    7.964346793368   -0.622602925446
 N   -7.256539406281    7.463086515526   -0.348848043973
 H   -8.023915569637    6.896260587419   -0.685776410306
 H   -7.393884038098    8.467100594804   -0.395978419761
