33

 N    1.979785056558   -6.981102784600    0.422515282186
 C    3.214555056558   -6.410552784600    0.649945282186
 N    4.436395056558   -6.975822784600    0.430035282186
 C    5.401945056558   -6.075762784600    0.404675282186
 N    5.198065056558   -4.707872784600    0.539805282186
 H    5.965875056558   -4.071572784600    0.337075282186
 N    6.688905056558   -6.474562784600    0.156275282186
 H    7.456295056558   -5.907742784600    0.493205282186
 H    6.826255056558   -7.478582784600    0.203405282186
 C    3.960725056558   -4.093752784600    0.786185282186
 O    3.790935056558   -2.868152784600    0.882155282186
 C    2.920795056558   -5.086532784600    0.990885282186
 N    1.552045056558   -4.808922784600    0.903395282186
 C    1.027185056558   -5.997482784600    0.589225282186
 H   -0.038304943442   -6.197552784600    0.483235282186
 H    1.807505056558   -7.957592784600    0.206575282186
RB    1.116265056558   -1.943962784600    0.378695282186
 C   -3.548294603887    6.179318763572   -1.203764847891
 N   -2.179550472147    5.901711933930   -1.116275577320
 C   -1.654696639740    7.090282132661   -0.802104978928
 H   -0.589205041989    7.290344394028   -0.696115993183
 N   -2.607293648936    8.073890086369   -0.635398339669
 H   -2.435008873594    9.050386737881   -0.419454184456
 C   -3.842059250061    7.503345592900   -0.862823314883
 C   -4.588227338553    5.186539192279   -0.999068479841
 O   -4.418438625289    3.960940546957   -1.095039276605
 N   -5.825566682348    5.800661690848   -0.752688913626
 H   -6.593374843339    5.164360803623   -0.549953695094
 C   -6.029442196769    7.168556155714   -0.617559806070
 N   -5.063894043651    8.068615892377   -0.642915122063
 N   -7.316412922937    7.567355614535   -0.369160240590
 H   -8.083789086292    7.000529686429   -0.706088606923
 H   -7.453757554753    8.571369693814   -0.416290616378
