33

 N    2.037276665589   -7.081223816554    0.442019412421
 C    3.272046665589   -6.510673816554    0.669449412421
 N    4.493886665589   -7.075943816554    0.449539412421
 C    5.459436665589   -6.175883816554    0.424179412421
 N    5.255556665589   -4.807993816554    0.559309412421
 H    6.023366665589   -4.171693816554    0.356579412421
 N    6.746396665589   -6.574683816554    0.175779412421
 H    7.513786665589   -6.007863816554    0.512709412421
 H    6.883746665589   -7.578703816554    0.222909412421
 C    4.018216665589   -4.193873816554    0.805689412421
 O    3.848426665589   -2.968273816554    0.901659412421
 C    2.978286665589   -5.186653816554    1.010389412421
 N    1.609536665589   -4.909043816554    0.922899412421
 C    1.084676665589   -6.097603816554    0.608729412421
 H    0.019186665589   -6.297673816554    0.502739412421
 H    1.864996665589   -8.057713816554    0.226079412421
RB    1.173756665589   -2.044083816554    0.398199412421
 C   -3.638104878870    6.335722412086   -1.234233142816
 N   -2.269360747130    6.058115582444   -1.146743872246
 C   -1.744506914723    7.246685781176   -0.832573273853
 H   -0.679015316972    7.446748042542   -0.726584288109
 N   -2.697103923920    8.230293734884   -0.665866634595
 H   -2.524819148577    9.206790386396   -0.449922479382
 C   -3.931869525045    7.659749241415   -0.893291609808
 C   -4.678037613536    5.342942840794   -1.029536774766
 O   -4.508248900272    4.117344195471   -1.125507571531
 N   -5.915376957332    5.957065339363   -0.783157208551
 H   -6.683185118322    5.320764452138   -0.580421990019
 C   -6.119252471752    7.324959804229   -0.648028100995
 N   -5.153704318635    8.225019540892   -0.673383416989
 N   -7.406223197920    7.723759263050   -0.399628535515
 H   -8.173599361276    7.156933334944   -0.736556901848
 H   -7.543567829737    8.727773342328   -0.446758911304
