9

 C   -1.387691043934   -1.056999979958    0.000000000000
 H   -2.366618043934   -0.565211979958    0.000000000000
 H   -1.280545043934   -1.696808979958    0.888272000000
 H   -1.280545043934   -1.696808979958   -0.888272000000
 C   -0.303064043934   -0.011415979958    0.000000000000
 O   -0.464168043934    1.198135020042    0.000000000000
 O    0.939221956066   -0.588423979958    0.000000000000
 H    1.573757956066    0.150139020042    0.000000000000
LI    2.290593124611    0.984493465788    0.000000000000
