9

 C   -1.408151826280   -1.080815140630    0.000000000000
 H   -2.387078826280   -0.589027140630    0.000000000000
 H   -1.301005826280   -1.720624140630    0.888272000000
 H   -1.301005826280   -1.720624140630   -0.888272000000
 C   -0.323524826280   -0.035231140630    0.000000000000
 O   -0.484628826280    1.174319859370    0.000000000000
 O    0.918761173720   -0.612239140630    0.000000000000
 H    1.553297173720    0.126323859370    0.000000000000
LI    2.465632842777    1.188229517593    0.000000000000
