9

 C   -1.421792347845   -1.096691914412    0.000000000000
 H   -2.400719347845   -0.604903914412    0.000000000000
 H   -1.314646347845   -1.736500914412    0.888272000000
 H   -1.314646347845   -1.736500914412   -0.888272000000
 C   -0.337165347845   -0.051107914412    0.000000000000
 O   -0.498269347845    1.158443085588    0.000000000000
 O    0.905120652155   -0.628115914412    0.000000000000
 H    1.539656652155    0.110447085588    0.000000000000
LI    2.582325988221    1.324053552129    0.000000000000
