9

 C   -1.442253130191   -1.120507075084    0.000000000000
 H   -2.421180130191   -0.628719075084    0.000000000000
 H   -1.335107130191   -1.760316075084    0.888272000000
 H   -1.335107130191   -1.760316075084   -0.888272000000
 C   -0.357626130191   -0.074923075084    0.000000000000
 O   -0.518730130191    1.134627924916    0.000000000000
 O    0.884659869809   -0.651931075084    0.000000000000
 H    1.519195869809    0.086631924916    0.000000000000
LI    2.757365706387    1.527789603933    0.000000000000
