9

 C   -1.994694253548   -1.763516413229    0.000000000000
 H   -2.973621253548   -1.271728413229    0.000000000000
 H   -1.887548253548   -2.403325413229    0.888272000000
 H   -1.887548253548   -2.403325413229   -0.888272000000
 C   -0.910067253548   -0.717932413229    0.000000000000
 O   -1.071171253548    0.491618586771    0.000000000000
 O    0.332218746452   -1.294940413229    0.000000000000
 H    0.966754746452   -0.556377413229    0.000000000000
LI    7.483438096863    7.028663002648    0.000000000000
