9

 C   -1.449073390973   -1.128445461974    0.000000000000
 H   -2.428000390973   -0.636657461974    0.000000000000
 H   -1.341927390973   -1.768254461974    0.888272000000
 H   -1.341927390973   -1.768254461974   -0.888272000000
 C   -0.364446390973   -0.082861461974    0.000000000000
 O   -0.525550390973    1.126689538026    0.000000000000
 O    0.877839609027   -0.659869461974    0.000000000000
 H    1.512375609027    0.078693538026    0.000000000000
LI    2.815712279109    1.595701621201    0.000000000000
