9

 C   -1.476354434102   -1.160199009537    0.000000000000
 H   -2.455281434102   -0.668411009537    0.000000000000
 H   -1.369208434102   -1.800008009537    0.888272000000
 H   -1.369208434102   -1.800008009537   -0.888272000000
 C   -0.391727434102   -0.114615009537    0.000000000000
 O   -0.552831434102    1.094935990463    0.000000000000
 O    0.850558565898   -0.691623009537    0.000000000000
 H    1.485094565898    0.046939990463    0.000000000000
LI    3.049098569996    1.867349690273    0.000000000000
