9

 C   -1.489994955667   -1.176075783318    0.000000000000
 H   -2.468921955667   -0.684287783318    0.000000000000
 H   -1.382848955667   -1.815884783318    0.888272000000
 H   -1.382848955667   -1.815884783318   -0.888272000000
 C   -0.405367955667   -0.130491783318    0.000000000000
 O   -0.566471955667    1.079059216682    0.000000000000
 O    0.836918044333   -0.707499783318    0.000000000000
 H    1.471454044333    0.031063216682    0.000000000000
LI    3.165791715440    2.003173724810    0.000000000000
