9

 C   -1.524096259577   -1.215767717772    0.000000000000
 H   -2.503023259577   -0.723979717772    0.000000000000
 H   -1.416950259577   -1.855576717772    0.888272000000
 H   -1.416950259577   -1.855576717772   -0.888272000000
 C   -0.439469259577   -0.170183717772    0.000000000000
 O   -0.600573259577    1.039367282228    0.000000000000
 O    0.802816740423   -0.747191717772    0.000000000000
 H    1.437352740423   -0.008628717772    0.000000000000
LI    3.457524579050    2.342733811150    0.000000000000
