9

 C   -1.530916520360   -1.223706104662    0.000000000000
 H   -2.509843520360   -0.731918104662    0.000000000000
 H   -1.423770520360   -1.863515104662    0.888272000000
 H   -1.423770520360   -1.863515104662   -0.888272000000
 C   -0.446289520360   -0.178122104662    0.000000000000
 O   -0.607393520360    1.031428895338    0.000000000000
 O    0.795996479640   -0.755130104662    0.000000000000
 H    1.430532479640   -0.016567104662    0.000000000000
LI    3.515871151772    2.410645828418    0.000000000000
