9

 C   -1.551377302706   -1.247521265335    0.000000000000
 H   -2.530304302706   -0.755733265335    0.000000000000
 H   -1.444231302706   -1.887330265335    0.888272000000
 H   -1.444231302706   -1.887330265335   -0.888272000000
 C   -0.466750302706   -0.201937265335    0.000000000000
 O   -0.627854302706    1.007613734665    0.000000000000
 O    0.775535697294   -0.778945265335    0.000000000000
 H    1.410071697294   -0.040382265335    0.000000000000
LI    3.690910869937    2.614381880222    0.000000000000
