9

 C   -1.558197563488   -1.255459652225    0.000000000000
 H   -2.537124563488   -0.763671652225    0.000000000000
 H   -1.451051563488   -1.895268652225    0.888272000000
 H   -1.451051563488   -1.895268652225   -0.888272000000
 C   -0.473570563488   -0.209875652225    0.000000000000
 O   -0.634674563488    0.999675347775    0.000000000000
 O    0.768715436512   -0.786883652225    0.000000000000
 H    1.403251436512   -0.048320652225    0.000000000000
LI    3.749257442659    2.682293897491    0.000000000000
