9

 C   -1.599119128181   -1.303089973569    0.000000000000
 H   -2.578046128181   -0.811301973569    0.000000000000
 H   -1.491973128181   -1.942898973569    0.888272000000
 H   -1.491973128181   -1.942898973569   -0.888272000000
 C   -0.514492128181   -0.257505973569    0.000000000000
 O   -0.675596128181    0.952045026431    0.000000000000
 O    0.727793871819   -0.834513973569    0.000000000000
 H    1.362329871819   -0.095950973569    0.000000000000
LI    4.099336878991    3.089766001099    0.000000000000
