9

 C   -1.605939388964   -1.311028360460    0.000000000000
 H   -2.584866388964   -0.819240360460    0.000000000000
 H   -1.498793388964   -1.950837360460    0.888272000000
 H   -1.498793388964   -1.950837360460   -0.888272000000
 C   -0.521312388964   -0.265444360460    0.000000000000
 O   -0.682416388964    0.944106639540    0.000000000000
 O    0.720973611036   -0.842452360460    0.000000000000
 H    1.355509611036   -0.103889360460    0.000000000000
LI    4.157683451713    3.157678018367    0.000000000000
