9

 C   -1.619579910528   -1.326905134241    0.000000000000
 H   -2.598506910528   -0.835117134241    0.000000000000
 H   -1.512433910528   -1.966714134241    0.888272000000
 H   -1.512433910528   -1.966714134241   -0.888272000000
 C   -0.534952910528   -0.281321134241    0.000000000000
 O   -0.696056910528    0.928229865759    0.000000000000
 O    0.707333089472   -0.858329134241    0.000000000000
 H    1.341869089472   -0.119766134241    0.000000000000
LI    4.274376597157    3.293502052903    0.000000000000
