9

 C   -1.626400171310   -1.334843521132    0.000000000000
 H   -2.605327171310   -0.843055521132    0.000000000000
 H   -1.519254171310   -1.974652521132    0.888272000000
 H   -1.519254171310   -1.974652521132   -0.888272000000
 C   -0.541773171310   -0.289259521132    0.000000000000
 O   -0.702877171310    0.920291478868    0.000000000000
 O    0.700512828690   -0.866267521132    0.000000000000
 H    1.335048828690   -0.127704521132    0.000000000000
LI    4.332723169879    3.361414070171    0.000000000000
