9

 C   -1.640040692874   -1.350720294913    0.000000000000
 H   -2.618967692874   -0.858932294913    0.000000000000
 H   -1.532894692874   -1.990529294913    0.888272000000
 H   -1.532894692874   -1.990529294913   -0.888272000000
 C   -0.555413692874   -0.305136294913    0.000000000000
 O   -0.716517692874    0.904414705087    0.000000000000
 O    0.686872307126   -0.882144294913    0.000000000000
 H    1.321408307126   -0.143581294913    0.000000000000
LI    4.449416315322    3.497238104708    0.000000000000
