9

 C   -1.653681214439   -1.366597068695    0.000000000000
 H   -2.632608214439   -0.874809068695    0.000000000000
 H   -1.546535214439   -2.006406068695    0.888272000000
 H   -1.546535214439   -2.006406068695   -0.888272000000
 C   -0.569054214439   -0.321013068695    0.000000000000
 O   -0.730158214439    0.888537931305    0.000000000000
 O    0.673231785561   -0.898021068695    0.000000000000
 H    1.307767785561   -0.159458068695    0.000000000000
LI    4.566109460766    3.633062139244    0.000000000000
