9

 C   -1.680962257567   -1.398350616257    0.000000000000
 H   -2.659889257567   -0.906562616257    0.000000000000
 H   -1.573816257567   -2.038159616257    0.888272000000
 H   -1.573816257567   -2.038159616257   -0.888272000000
 C   -0.596335257567   -0.352766616257    0.000000000000
 O   -0.757439257567    0.856784383743    0.000000000000
 O    0.645950742433   -0.929774616257    0.000000000000
 H    1.280486742433   -0.191211616257    0.000000000000
LI    4.799495751654    3.904710208316    0.000000000000
