9

 C   -1.701423039914   -1.422165776930    0.000000000000
 H   -2.680350039914   -0.930377776930    0.000000000000
 H   -1.594277039914   -2.061974776930    0.888272000000
 H   -1.594277039914   -2.061974776930   -0.888272000000
 C   -0.616796039914   -0.376581776930    0.000000000000
 O   -0.777900039914    0.832969223070    0.000000000000
 O    0.625489960086   -0.953589776930    0.000000000000
 H    1.260025960086   -0.215026776930    0.000000000000
LI    4.974535469820    4.108446260120    0.000000000000
