9

 C   -1.721883822260   -1.445980937602    0.000000000000
 H   -2.700810822260   -0.954192937602    0.000000000000
 H   -1.614737822260   -2.085789937602    0.888272000000
 H   -1.614737822260   -2.085789937602   -0.888272000000
 C   -0.637256822260   -0.400396937602    0.000000000000
 O   -0.798360822260    0.809154062398    0.000000000000
 O    0.605029177740   -0.977404937602    0.000000000000
 H    1.239565177740   -0.238841937602    0.000000000000
LI    5.149575187986    4.312182311925    0.000000000000
