9

 C   -1.749164865389   -1.477734485164    0.000000000000
 H   -2.728091865389   -0.985946485164    0.000000000000
 H   -1.642018865389   -2.117543485164    0.888272000000
 H   -1.642018865389   -2.117543485164   -0.888272000000
 C   -0.664537865389   -0.432150485164    0.000000000000
 O   -0.825641865389    0.777400514836    0.000000000000
 O    0.577748134611   -1.009158485164    0.000000000000
 H    1.212284134611   -0.270595485164    0.000000000000
LI    5.382961478873    4.583830380997    0.000000000000
