9

 C   -1.755985126171   -1.485672872055    0.000000000000
 H   -2.734912126171   -0.993884872055    0.000000000000
 H   -1.648839126171   -2.125481872055    0.888272000000
 H   -1.648839126171   -2.125481872055   -0.888272000000
 C   -0.671358126171   -0.440088872055    0.000000000000
 O   -0.832462126171    0.769462127945    0.000000000000
 O    0.570927873829   -1.017096872055    0.000000000000
 H    1.205463873829   -0.278533872055    0.000000000000
LI    5.441308051595    4.651742398265    0.000000000000
