9

 C   -1.762805386954   -1.493611258946    0.000000000000
 H   -2.741732386954   -1.001823258946    0.000000000000
 H   -1.655659386954   -2.133420258946    0.888272000000
 H   -1.655659386954   -2.133420258946   -0.888272000000
 C   -0.678178386954   -0.448027258946    0.000000000000
 O   -0.839282386954    0.761523741054    0.000000000000
 O    0.564107613046   -1.025035258946    0.000000000000
 H    1.198643613046   -0.286472258946    0.000000000000
LI    5.499654624317    4.719654415533    0.000000000000
