9

 C   -1.783266169300   -1.517426419618    0.000000000000
 H   -2.762193169300   -1.025638419618    0.000000000000
 H   -1.676120169300   -2.157235419618    0.888272000000
 H   -1.676120169300   -2.157235419618   -0.888272000000
 C   -0.698639169300   -0.471842419618    0.000000000000
 O   -0.859743169300    0.737708580382    0.000000000000
 O    0.543646830700   -1.048850419618    0.000000000000
 H    1.178182830700   -0.310287419618    0.000000000000
LI    5.674694342483    4.923390467337    0.000000000000
