9

 C   -1.790086430082   -1.525364806508    0.000000000000
 H   -2.769013430082   -1.033576806508    0.000000000000
 H   -1.682940430082   -2.165173806508    0.888272000000
 H   -1.682940430082   -2.165173806508   -0.888272000000
 C   -0.705459430082   -0.479780806508    0.000000000000
 O   -0.866563430082    0.729770193492    0.000000000000
 O    0.536826569918   -1.056788806508    0.000000000000
 H    1.171362569918   -0.318225806508    0.000000000000
LI    5.733040915205    4.991302484606    0.000000000000
