9

 C   -1.810547212429   -1.549179967180    0.000000000000
 H   -2.789474212429   -1.057391967180    0.000000000000
 H   -1.703401212429   -2.188988967180    0.888272000000
 H   -1.703401212429   -2.188988967180   -0.888272000000
 C   -0.725920212429   -0.503595967180    0.000000000000
 O   -0.887024212429    0.705955032820    0.000000000000
 O    0.516365787571   -1.080603967180    0.000000000000
 H    1.150901787571   -0.342040967180    0.000000000000
LI    5.908080633371    5.195038536410    0.000000000000
