9

 C   -1.858289037904   -1.604748675415    0.000000000000
 H   -2.837216037904   -1.112960675415    0.000000000000
 H   -1.751143037904   -2.244557675415    0.888272000000
 H   -1.751143037904   -2.244557675415   -0.888272000000
 C   -0.773662037904   -0.559164675415    0.000000000000
 O   -0.934766037904    0.650386324585    0.000000000000
 O    0.468623962096   -1.136172675415    0.000000000000
 H    1.103159962096   -0.397609675415    0.000000000000
LI    6.316506642424    5.670422657286    0.000000000000
