9

 C   -1.865109298686   -1.612687062306    0.000000000000
 H   -2.844036298686   -1.120899062306    0.000000000000
 H   -1.757963298686   -2.252496062306    0.888272000000
 H   -1.757963298686   -2.252496062306   -0.888272000000
 C   -0.780482298686   -0.567103062306    0.000000000000
 O   -0.941586298686    0.642447937694    0.000000000000
 O    0.461803701314   -1.144111062306    0.000000000000
 H    1.096339701314   -0.405548062306    0.000000000000
LI    6.374853215146    5.738334674554    0.000000000000
