9

 C   -1.871929559468   -1.620625449197    0.000000000000
 H   -2.850856559468   -1.128837449197    0.000000000000
 H   -1.764783559468   -2.260434449197    0.888272000000
 H   -1.764783559468   -2.260434449197   -0.888272000000
 C   -0.787302559468   -0.575041449197    0.000000000000
 O   -0.948406559468    0.634509550803    0.000000000000
 O    0.454983440532   -1.152049449197    0.000000000000
 H    1.089519440532   -0.413486449197    0.000000000000
LI    6.433199787868    5.806246691823    0.000000000000
