9

 C   -1.899210602597   -1.652378996759    0.000000000000
 H   -2.878137602597   -1.160590996759    0.000000000000
 H   -1.792064602597   -2.292187996759    0.888272000000
 H   -1.792064602597   -2.292187996759   -0.888272000000
 C   -0.814583602597   -0.606794996759    0.000000000000
 O   -0.975687602597    0.602756003241    0.000000000000
 O    0.427702397403   -1.183802996759    0.000000000000
 H    1.062238397403   -0.445239996759    0.000000000000
LI    6.666586078756    6.077894760895    0.000000000000
