9

 C   -1.906030863379   -1.660317383650    0.000000000000
 H   -2.884957863379   -1.168529383650    0.000000000000
 H   -1.798884863379   -2.300126383650    0.888272000000
 H   -1.798884863379   -2.300126383650   -0.888272000000
 C   -0.821403863379   -0.614733383650    0.000000000000
 O   -0.982507863379    0.594817616350    0.000000000000
 O    0.420882136621   -1.191741383650    0.000000000000
 H    1.055418136621   -0.453178383650    0.000000000000
LI    6.724932651478    6.145806778163    0.000000000000
