9

 C   -1.940132167290   -1.700009318103    0.000000000000
 H   -2.919059167290   -1.208221318103    0.000000000000
 H   -1.832986167290   -2.339818318103    0.888272000000
 H   -1.832986167290   -2.339818318103   -0.888272000000
 C   -0.855505167290   -0.654425318103    0.000000000000
 O   -1.016609167290    0.555125681897    0.000000000000
 O    0.386780832710   -1.231433318103    0.000000000000
 H    1.021316832710   -0.492870318103    0.000000000000
LI    7.016665515087    6.485366864503    0.000000000000
