9

 C   -1.953772688854   -1.715886091885    0.000000000000
 H   -2.932699688854   -1.224098091885    0.000000000000
 H   -1.846626688854   -2.355695091885    0.888272000000
 H   -1.846626688854   -2.355695091885   -0.888272000000
 C   -0.869145688854   -0.670302091885    0.000000000000
 O   -1.030249688854    0.539248908115    0.000000000000
 O    0.373140311146   -1.247310091885    0.000000000000
 H    1.007676311146   -0.508747091885    0.000000000000
LI    7.133358660531    6.621190899040    0.000000000000
