9

 C   -1.960592949637   -1.723824478775    0.000000000000
 H   -2.939519949637   -1.232036478775    0.000000000000
 H   -1.853446949637   -2.363633478775    0.888272000000
 H   -1.853446949637   -2.363633478775   -0.888272000000
 C   -0.875965949637   -0.678240478775    0.000000000000
 O   -1.037069949637    0.531310521225    0.000000000000
 O    0.366320050363   -1.255248478775    0.000000000000
 H    1.000856050363   -0.516685478775    0.000000000000
LI    7.191705233253    6.689102916308    0.000000000000
