9

 C   -1.967413210419   -1.731762865666    0.000000000000
 H   -2.946340210419   -1.239974865666    0.000000000000
 H   -1.860267210419   -2.371571865666    0.888272000000
 H   -1.860267210419   -2.371571865666   -0.888272000000
 C   -0.882786210419   -0.686178865666    0.000000000000
 O   -1.043890210419    0.523372134334    0.000000000000
 O    0.359499789581   -1.263186865666    0.000000000000
 H    0.994035789581   -0.524623865666    0.000000000000
LI    7.250051805975    6.757014933576    0.000000000000
