33

 N    0.100302152724   -3.905395970906    0.021020254172
 C    1.328372152724   -3.284565970906    0.041490254172
 N    2.556122152724   -3.870255970906    0.071620254172
 C    3.533772152724   -2.982065970906    0.070520254172
 N    3.335242152724   -1.608575970906    0.056330254172
 H    4.142172152724   -0.988655970906    0.006680254172
 N    4.837852152724   -3.403615970906    0.014790254172
 H    5.556392152724   -2.818345970906    0.423890254172
 H    4.957952152724   -4.399645970906    0.165100254172
 C    2.087932152724   -0.962295970906    0.043110254172
 O    1.986992152724    0.278134029094    0.030210254172
 C    1.025952152724   -1.921135970906    0.037270254172
 N   -0.336587847276   -1.694285970906    0.012930254172
 C   -0.863837847276   -2.921685970906    0.003960254172
 H   -1.925947847276   -3.149755970906   -0.014519745828
 H   -0.058417847276   -4.908585970906    0.016810254172
NA   -0.399887847276    0.748804029094   -0.014529745828
 C   -0.965088695292    1.807164260364   -0.035063188519
 N    0.397451832682    1.580314631954   -0.010723184061
 C    0.924699520437    2.807723117054   -0.001757774935
 H    1.986822602927    3.035788833127    0.016711304503
 N   -0.039437017791    3.791432091785   -0.018822029610
 H    0.119289413805    4.794613922604   -0.014616898609
 C   -1.267505931574    3.170596268748   -0.039282643775
 C   -2.027071305016    0.848323187333   -0.040893232375
 O   -1.926135869981   -0.392100082492   -0.027992932669
 N   -3.274378557085    1.494606057585   -0.054110272751
 H   -4.081318705616    0.874690460743   -0.004462131992
 C   -3.472910017170    2.868099254211   -0.068307588610
 N   -2.495260193083    3.756283215461   -0.069408515488
 N   -4.776984200597    3.289652606882   -0.012566961859
 H   -5.495522676224    2.704376472675   -0.421668203816
 H   -4.897088807489    4.285679026357   -0.162882525630
