33

 N    0.144071378217   -3.987355521705    0.022610366584
 C    1.372141378217   -3.366525521705    0.043080366584
 N    2.599891378217   -3.952215521705    0.073210366584
 C    3.577541378217   -3.064025521705    0.072110366584
 N    3.379011378217   -1.690535521705    0.057920366584
 H    4.185941378217   -1.070615521705    0.008270366584
 N    4.881621378217   -3.485575521705    0.016380366584
 H    5.600161378217   -2.900305521705    0.425480366584
 H    5.001721378217   -4.481605521705    0.166690366584
 C    2.131701378217   -1.044255521705    0.044700366584
 O    2.030761378217    0.196174478295    0.031800366584
 C    1.069721378217   -2.003095521705    0.038860366584
 N   -0.292818621783   -1.776245521705    0.014520366584
 C   -0.820068621783   -3.003645521705    0.005550366584
 H   -1.882178621783   -3.231715521705   -0.012929633416
 H   -0.014648621783   -4.990545521705    0.018400366584
NA   -0.356118621783    0.666844478295   -0.012939633416
 C   -1.015519611135    1.901598081442   -0.036895316557
 N    0.347020916839    1.674748453033   -0.012555312098
 C    0.874268604594    2.902156938133   -0.003589902972
 H    1.936391687083    3.130222654206    0.014879176466
 N   -0.089867933634    3.885865912864   -0.020654157647
 H    0.068858497962    4.889047743683   -0.016449026647
 C   -1.317936847418    3.265030089826   -0.041114771813
 C   -2.077502220860    0.942757008411   -0.042725360412
 O   -1.976566785825   -0.297666261413   -0.029825060707
 N   -3.324809472928    1.589039878663   -0.055942400788
 H   -4.131749621459    0.969124281821   -0.006294260029
 C   -3.523340933014    2.962533075289   -0.070139716647
 N   -2.545691108926    3.850717036539   -0.071240643525
 N   -4.827415116441    3.384086427961   -0.014399089896
 H   -5.545953592068    2.798810293753   -0.423500331853
 H   -4.947519723332    4.380112847436   -0.164714653667
