33

 N    0.187840603710   -4.069315072505    0.024200478995
 C    1.415910603710   -3.448485072505    0.044670478995
 N    2.643660603710   -4.034175072505    0.074800478995
 C    3.621310603710   -3.145985072505    0.073700478995
 N    3.422780603710   -1.772495072505    0.059510478995
 H    4.229710603710   -1.152575072505    0.009860478995
 N    4.925390603710   -3.567535072505    0.017970478995
 H    5.643930603710   -2.982265072505    0.427070478995
 H    5.045490603710   -4.563565072505    0.168280478995
 C    2.175470603710   -1.126215072505    0.046290478995
 O    2.074530603710    0.114214927495    0.033390478995
 C    1.113490603710   -2.085055072505    0.040450478995
 N   -0.249049396290   -1.858205072505    0.016110478995
 C   -0.776299396290   -3.085605072505    0.007140478995
 H   -1.838409396290   -3.313675072505   -0.011339521005
 H    0.029120603710   -5.072505072505    0.019990478995
NA   -0.312349396290    0.584884927495   -0.011349521005
 C   -1.065950526979    1.996031902521   -0.038727444594
 N    0.296590000996    1.769182274111   -0.014387440136
 C    0.823837688751    2.996590759211   -0.005422031010
 H    1.885960771240    3.224656475284    0.013047048429
 N   -0.140298849477    3.980299733942   -0.022486285685
 H    0.018427582119    4.983481564762   -0.018281154684
 C   -1.368367763261    3.359463910905   -0.042946899850
 C   -2.127933136703    1.037190829490   -0.044557488450
 O   -2.026997701668   -0.203232440335   -0.031657188744
 N   -3.375240388771    1.683473699742   -0.057774528826
 H   -4.182180537303    1.063558102900   -0.008126388067
 C   -3.573771848857    3.056966896368   -0.071971844684
 N   -2.596122024769    3.945150857618   -0.073072771563
 N   -4.877846032284    3.478520249040   -0.016231217934
 H   -5.596384507911    2.893244114832   -0.425332459890
 H   -4.997950639175    4.474546668514   -0.166546781705
