33

 N    0.209725216456   -4.110294847905    0.024995535201
 C    1.437795216456   -3.489464847905    0.045465535201
 N    2.665545216456   -4.075154847905    0.075595535201
 C    3.643195216456   -3.186964847905    0.074495535201
 N    3.444665216456   -1.813474847905    0.060305535201
 H    4.251595216456   -1.193554847905    0.010655535201
 N    4.947275216456   -3.608514847905    0.018765535201
 H    5.665815216456   -3.023244847905    0.427865535201
 H    5.067375216456   -4.604544847905    0.169075535201
 C    2.197355216456   -1.167194847905    0.047085535201
 O    2.096415216456    0.073235152095    0.034185535201
 C    1.135375216456   -2.126034847905    0.041245535201
 N   -0.227164783544   -1.899184847905    0.016905535201
 C   -0.754414783544   -3.126584847905    0.007935535201
 H   -1.816524783544   -3.354654847905   -0.010544464799
 H    0.051005216456   -5.113484847905    0.020785535201
NA   -0.290464783544    0.543905152095   -0.010554464799
 C   -1.091165984900    2.043248813060   -0.039643508612
 N    0.271374543074    1.816399184650   -0.015303504154
 C    0.798622230829    3.043807669751   -0.006338095028
 H    1.860745313318    3.271873385823    0.012130984410
 N   -0.165514307399    4.027516644482   -0.023402349703
 H   -0.006787875803    5.030698475301   -0.019197218703
 C   -1.393583221183    3.406680821444   -0.043862963869
 C   -2.153148594625    1.084407740029   -0.045473552468
 O   -2.052213159590   -0.156015529795   -0.032573252763
 N   -3.400455846693    1.730690610281   -0.058690592844
 H   -4.207395995224    1.110775013439   -0.009042452085
 C   -3.598987306779    3.104183806907   -0.072887908703
 N   -2.621337482691    3.992367768157   -0.073988835581
 N   -4.903061490206    3.525737159579   -0.017147281952
 H   -5.621599965832    2.940461025371   -0.426248523909
 H   -5.023166097097    4.521763579054   -0.167462845723
