33

 N    0.275379054696   -4.233234174104    0.027380703817
 C    1.503449054696   -3.612404174104    0.047850703817
 N    2.731199054696   -4.198094174104    0.077980703817
 C    3.708849054696   -3.309904174104    0.076880703817
 N    3.510319054696   -1.936414174104    0.062690703817
 H    4.317249054696   -1.316494174104    0.013040703817
 N    5.012929054696   -3.731454174104    0.021150703817
 H    5.731469054696   -3.146184174104    0.430250703817
 H    5.133029054696   -4.727484174104    0.171460703817
 C    2.263009054696   -1.290134174104    0.049470703817
 O    2.162069054696   -0.049704174104    0.036570703817
 C    1.201029054696   -2.248974174104    0.043630703817
 N   -0.161510945304   -2.022124174104    0.019290703817
 C   -0.688760945304   -3.249524174104    0.010320703817
 H   -1.750870945304   -3.477594174104   -0.008159296183
 H    0.116659054696   -5.236424174104    0.023170703817
NA   -0.224810945304    0.420965825896   -0.008169296183
 C   -1.166812358665    2.184899544678   -0.042391700668
 N    0.195728169309    1.958049916268   -0.018051696210
 C    0.722975857064    3.185458401369   -0.009086287084
 H    1.785098939554    3.413524117441    0.009382792354
 N   -0.241160681164    4.169167376099   -0.026150541759
 H   -0.082434249568    5.172349206919   -0.021945410758
 C   -1.469229594948    3.548331553062   -0.046611155925
 C   -2.228794968390    1.226058471647   -0.048221744524
 O   -2.127859533354   -0.014364798178   -0.035321444819
 N   -3.476102220458    1.872341341899   -0.061438784900
 H   -4.283042368989    1.252425745057   -0.011790644141
 C   -3.674633680544    3.245834538525   -0.075636100759
 N   -2.696983856456    4.134018499775   -0.076737027637
 N   -4.978707863971    3.667387891197   -0.019895474008
 H   -5.697246339597    3.082111756989   -0.428996715965
 H   -5.098812470862    4.663414310671   -0.170211037779
