33

 N    0.362917505681   -4.397153275704    0.030560928640
 C    1.590987505681   -3.776323275704    0.051030928640
 N    2.818737505681   -4.362013275704    0.081160928640
 C    3.796387505681   -3.473823275704    0.080060928640
 N    3.597857505681   -2.100333275704    0.065870928640
 H    4.404787505681   -1.480413275704    0.016220928640
 N    5.100467505681   -3.895373275704    0.024330928640
 H    5.819007505681   -3.310103275704    0.433430928640
 H    5.220567505681   -4.891403275704    0.174640928640
 C    2.350547505681   -1.454053275704    0.052650928640
 O    2.249607505681   -0.213623275704    0.039750928640
 C    1.288567505681   -2.412893275704    0.046810928640
 N   -0.073972494319   -2.186043275704    0.022470928640
 C   -0.601222494319   -3.413443275704    0.013500928640
 H   -1.663332494319   -3.641513275704   -0.004979071360
 H    0.204197505681   -5.400343275704    0.026350928640
NA   -0.137272494319    0.257046724296   -0.004989071360
 C   -1.267674190352    2.373767186835   -0.046055956743
 N    0.094866337623    2.146917558425   -0.021715952285
 C    0.622114025377    3.374326043526   -0.012750543159
 H    1.684237107867    3.602391759598    0.005718536280
 N   -0.342022512851    4.358035018256   -0.029814797834
 H   -0.183296081254    5.361216849076   -0.025609666833
 C   -1.570091426634    3.737199195219   -0.050275411999
 C   -2.329656800076    1.414926113804   -0.051886000599
 O   -2.228721365041    0.174502843979   -0.038985700893
 N   -3.576964052145    2.061208984056   -0.065103040975
 H   -4.383904200676    1.441293387214   -0.015454900216
 C   -3.775495512230    3.434702180682   -0.079300356834
 N   -2.797845688142    4.322886141932   -0.080401283712
 N   -5.079569695657    3.856255533354   -0.023559730083
 H   -5.798108171284    3.270979399146   -0.432660972039
 H   -5.199674302548    4.852281952828   -0.173875293854
