33

 N    0.384802118428   -4.438133051104    0.031355984846
 C    1.612872118428   -3.817303051104    0.051825984846
 N    2.840622118428   -4.402993051104    0.081955984846
 C    3.818272118428   -3.514803051104    0.080855984846
 N    3.619742118428   -2.141313051104    0.066665984846
 H    4.426672118428   -1.521393051104    0.017015984846
 N    5.122352118428   -3.936353051104    0.025125984846
 H    5.840892118428   -3.351083051104    0.434225984846
 H    5.242452118428   -4.932383051104    0.175435984846
 C    2.372432118428   -1.495033051104    0.053445984846
 O    2.271492118428   -0.254603051104    0.040545984846
 C    1.310452118428   -2.453873051104    0.047605984846
 N   -0.052087881572   -2.227023051104    0.023265984846
 C   -0.579337881572   -3.454423051104    0.014295984846
 H   -1.641447881572   -3.682493051104   -0.004184015154
 H    0.226082118428   -5.441323051104    0.027145984846
NA   -0.115387881572    0.216066948896   -0.004194015154
 C   -1.292889648274    2.420984097374   -0.046972020762
 N    0.069650879701    2.194134468965   -0.022632016303
 C    0.596898567456    3.421542954065   -0.013666607178
 H    1.659021649945    3.649608670138    0.004802472261
 N   -0.367237970772    4.405251928796   -0.030730861853
 H   -0.208511539176    5.408433759615   -0.026525730852
 C   -1.595306884556    3.784416105758   -0.051191476018
 C   -2.354872257998    1.462143024343   -0.052802064617
 O   -2.253936822963    0.221719754519   -0.039901764912
 N   -3.602179510066    2.108425894595   -0.066019104993
 H   -4.409119658597    1.488510297753   -0.016370964234
 C   -3.800710970152    3.481919091221   -0.080216420852
 N   -2.823061146064    4.370103052471   -0.081317347730
 N   -5.104785153579    3.903472443893   -0.024475794101
 H   -5.823323629206    3.318196309685   -0.433577036058
 H   -5.224889760470    4.899498863368   -0.174791357872
