33

 N    0.406686731174   -4.479112826503    0.032151041051
 C    1.634756731174   -3.858282826503    0.052621041051
 N    2.862506731174   -4.443972826503    0.082751041051
 C    3.840156731174   -3.555782826503    0.081651041051
 N    3.641626731174   -2.182292826503    0.067461041051
 H    4.448556731174   -1.562372826503    0.017811041051
 N    5.144236731174   -3.977332826503    0.025921041051
 H    5.862776731174   -3.392062826503    0.435021041051
 H    5.264336731174   -4.973362826503    0.176231041051
 C    2.394316731174   -1.536012826503    0.054241041051
 O    2.293376731174   -0.295582826503    0.041341041051
 C    1.332336731174   -2.494852826503    0.048401041051
 N   -0.030203268826   -2.268002826503    0.024061041051
 C   -0.557453268826   -3.495402826503    0.015091041051
 H   -1.619563268826   -3.723472826503   -0.003388958949
 H    0.247966731174   -5.482302826503    0.027941041051
NA   -0.093503268826    0.175087173497   -0.003398958949
 C   -1.318105106195    2.468201007914   -0.047888084780
 N    0.044435421779    2.241351379504   -0.023548080322
 C    0.571683109534    3.468759864604   -0.014582671196
 H    1.633806192024    3.696825580677    0.003886408242
 N   -0.392453428694    4.452468839335   -0.031646925871
 H   -0.233726997098    5.455650670154   -0.027441794870
 C   -1.620522342477    3.831633016298   -0.052107540036
 C   -2.380087715919    1.509359934882   -0.053718128636
 O   -2.279152280884    0.268936665058   -0.040817828930
 N   -3.627394967988    2.155642805134   -0.066935169012
 H   -4.434335116519    1.535727208293   -0.017287028253
 C   -3.825926428073    3.529136001761   -0.081132484871
 N   -2.848276603986    4.417319963010   -0.082233411749
 N   -5.130000611500    3.950689354432   -0.025391858120
 H   -5.848539087127    3.365413220224   -0.434493100077
 H   -5.250105218392    4.946715773907   -0.175707421891
