33

 N    0.494225182160   -4.643031928103    0.035331265874
 C    1.722295182160   -4.022201928103    0.055801265874
 N    2.950045182160   -4.607891928103    0.085931265874
 C    3.927695182160   -3.719701928103    0.084831265874
 N    3.729165182160   -2.346211928103    0.070641265874
 H    4.536095182160   -1.726291928103    0.020991265874
 N    5.231775182160   -4.141251928103    0.029101265874
 H    5.950315182160   -3.555981928103    0.438201265874
 H    5.351875182160   -5.137281928103    0.179411265874
 C    2.481855182160   -1.699931928103    0.057421265874
 O    2.380915182160   -0.459501928103    0.044521265874
 C    1.419875182160   -2.658771928103    0.051581265874
 N    0.057335182160   -2.431921928103    0.027241265874
 C   -0.469914817840   -3.659321928103    0.018271265874
 H   -1.532024817840   -3.887391928103   -0.000208734126
 H    0.335505182160   -5.646221928103    0.031121265874
NA   -0.005964817840    0.011168071897   -0.000218734126
 C   -1.418966937882    2.657068650071   -0.051552340855
 N   -0.056426409907    2.430219021661   -0.027212336397
 C    0.470821277848    3.657627506761   -0.018246927271
 H    1.532944360337    3.885693222834    0.000222152168
 N   -0.493315260380    4.641336481492   -0.035311181946
 H   -0.334588828784    5.644518312311   -0.031106050945
 C   -1.721384174164    4.020500658455   -0.055771796111
 C   -2.480949547606    1.698227577039   -0.057382384711
 O   -2.380014112571    0.457804307215   -0.044482085005
 N   -3.728256799674    2.344510447292   -0.070599425087
 H   -4.535196948206    1.724594850450   -0.020951284328
 C   -3.926788259760    3.718003643918   -0.084796740945
 N   -2.949138435672    4.606187605167   -0.085897667824
 N   -5.230862443187    4.139556996589   -0.029056114195
 H   -5.949400918814    3.554280862381   -0.438157356151
 H   -5.350967050078    5.135583416064   -0.179371677966
