33

 N    0.581763633145   -4.806951029702    0.038511490697
 C    1.809833633145   -4.186121029702    0.058981490697
 N    3.037583633145   -4.771811029702    0.089111490697
 C    4.015233633145   -3.883621029702    0.088011490697
 N    3.816703633145   -2.510131029702    0.073821490697
 H    4.623633633145   -1.890211029702    0.024171490697
 N    5.319313633145   -4.305171029702    0.032281490697
 H    6.037853633145   -3.719901029702    0.441381490697
 H    5.439413633145   -5.301201029702    0.182591490697
 C    2.569393633145   -1.863851029702    0.060601490697
 O    2.468453633145   -0.623421029702    0.047701490697
 C    1.507413633145   -2.822691029702    0.054761490697
 N    0.144873633145   -2.595841029702    0.030421490697
 C   -0.382376366855   -3.823241029702    0.021451490697
 H   -1.444486366855   -4.051311029702    0.002971490697
 H    0.423043633145   -5.810141029702    0.034301490697
NA    0.081573633145   -0.152751029702    0.002961490697
 C   -1.519828769568    2.845936292228   -0.055216596929
 N   -0.157288241594    2.619086663818   -0.030876592471
 C    0.369959446161    3.846495148918   -0.021911183345
 H    1.432082528651    4.074560864991   -0.003442103907
 N   -0.594177092067    4.830204123649   -0.038975438020
 H   -0.435450660471    5.833385954468   -0.034770307019
 C   -1.822246005851    4.209368300612   -0.059436052186
 C   -2.581811379293    1.887095219197   -0.061046640785
 O   -2.480875944258    0.646671949372   -0.048146341080
 N   -3.829118631361    2.533378089449   -0.074263681161
 H   -4.636058779892    1.913462492607   -0.024615540402
 C   -4.027650091447    3.906871286075   -0.088460997020
 N   -3.050000267359    4.795055247325   -0.089561923898
 N   -5.331724274874    4.328424638746   -0.032720370269
 H   -6.050262750500    3.743148504539   -0.441821612226
 H   -5.451828881765    5.324451058221   -0.183035934040
