33

 N    0.625532858638   -4.888910580502    0.040101603108
 C    1.853602858638   -4.268080580502    0.060571603108
 N    3.081352858638   -4.853770580502    0.090701603108
 C    4.059002858638   -3.965580580502    0.089601603108
 N    3.860472858638   -2.592090580502    0.075411603108
 H    4.667402858638   -1.972170580502    0.025761603108
 N    5.363082858638   -4.387130580502    0.033871603108
 H    6.081622858638   -3.801860580502    0.442971603108
 H    5.483182858638   -5.383160580502    0.184181603108
 C    2.613162858638   -1.945810580502    0.062191603108
 O    2.512222858638   -0.705380580502    0.049291603108
 C    1.551182858638   -2.904650580502    0.056351603108
 N    0.188642858638   -2.677800580502    0.032011603108
 C   -0.338607141362   -3.905200580502    0.023041603108
 H   -1.400717141362   -4.133270580502    0.004561603108
 H    0.466812858638   -5.892100580502    0.035891603108
NA    0.125342858638   -0.234710580502    0.004551603108
 C   -1.570259685412    2.940370113306   -0.057048724967
 N   -0.207719157437    2.713520484897   -0.032708720509
 C    0.319528530318    3.940928969997   -0.023743311383
 H    1.381651612807    4.168994686070   -0.005274231944
 N   -0.644608007910    4.924637944728   -0.040807566058
 H   -0.485881576314    5.927819775547   -0.036602435057
 C   -1.872676921694    4.303802121690   -0.061268180223
 C   -2.632242295136    1.981529040275   -0.062878768822
 O   -2.531306860101    0.741105770451   -0.049978469117
 N   -3.879549547204    2.627811910527   -0.076095809198
 H   -4.686489695735    2.007896313685   -0.026447668440
 C   -4.078081007290    4.001305107153   -0.090293125057
 N   -3.100431183202    4.889489068403   -0.091394051935
 N   -5.382155190717    4.422858459825   -0.034552498306
 H   -6.100693666344    3.837582325617   -0.443653740263
 H   -5.502259797608    5.418884879300   -0.184868062077
