33

 N    0.691186696877   -5.011849906701    0.042486771725
 C    1.919256696877   -4.391019906701    0.062956771725
 N    3.147006696877   -4.976709906701    0.093086771725
 C    4.124656696877   -4.088519906701    0.091986771725
 N    3.926126696877   -2.715029906701    0.077796771725
 H    4.733056696877   -2.095109906701    0.028146771725
 N    5.428736696877   -4.510069906701    0.036256771725
 H    6.147276696877   -3.924799906701    0.445356771725
 H    5.548836696877   -5.506099906701    0.186566771725
 C    2.678816696877   -2.068749906701    0.064576771725
 O    2.577876696877   -0.828319906701    0.051676771725
 C    1.616836696877   -3.027589906701    0.058736771725
 N    0.254296696877   -2.800739906701    0.034396771725
 C   -0.272953303123   -4.028139906701    0.025426771725
 H   -1.335063303123   -4.256209906701    0.006946771725
 H    0.532466696877   -6.015039906701    0.038276771725
NA    0.190996696877   -0.357649906701    0.006936771725
 C   -1.645906059177    3.082020844924   -0.059796917023
 N   -0.283365531202    2.855171216514   -0.035456912564
 C    0.243882156553    4.082579701615   -0.026491503439
 H    1.306005239042    4.310645417687   -0.008022424000
 N   -0.720254381675    5.066288676346   -0.043555758114
 H   -0.561527950079    6.069470507165   -0.039350627113
 C   -1.948323295459    4.445452853308   -0.064016372279
 C   -2.707888668901    2.123179771893   -0.065626960878
 O   -2.606953233866    0.882756502069   -0.052726661173
 N   -3.955195920969    2.769462642145   -0.078844001254
 H   -4.762136069500    2.149547045303   -0.029195860495
 C   -4.153727381055    4.142955838771   -0.093041317113
 N   -3.176077556967    5.031139800021   -0.094142243991
 N   -5.457801564482    4.564509191443   -0.037300690362
 H   -6.176340040109    3.979233057235   -0.446401932319
 H   -5.577906171373    5.560535610917   -0.187616254133
