33

 N    0.734955922370   -5.093809457501    0.044076884136
 C    1.963025922370   -4.472979457501    0.064546884136
 N    3.190775922370   -5.058669457501    0.094676884136
 C    4.168425922370   -4.170479457501    0.093576884136
 N    3.969895922370   -2.796989457501    0.079386884136
 H    4.776825922370   -2.177069457501    0.029736884136
 N    5.472505922370   -4.592029457501    0.037846884136
 H    6.191045922370   -4.006759457501    0.446946884136
 H    5.592605922370   -5.588059457501    0.188156884136
 C    2.722585922370   -2.150709457501    0.066166884136
 O    2.621645922370   -0.910279457501    0.053266884136
 C    1.660605922370   -3.109549457501    0.060326884136
 N    0.298065922370   -2.882699457501    0.035986884136
 C   -0.229184077630   -4.110099457501    0.027016884136
 H   -1.291294077630   -4.338169457501    0.008536884136
 H    0.576235922370   -6.096999457501    0.039866884136
NA    0.234765922370   -0.439609457501    0.008526884136
 C   -1.696336975020    3.176454666003   -0.061629045060
 N   -0.333796447045    2.949605037593   -0.037289040602
 C    0.193451240710    4.177013522693   -0.028323631476
 H    1.255574323199    4.405079238766   -0.009854552037
 N   -0.770685297519    5.160722497424   -0.045387886151
 H   -0.611958865922    6.163904328243   -0.041182755150
 C   -1.998754211302    4.539886674387   -0.065848500316
 C   -2.758319584744    2.217613592971   -0.067459088916
 O   -2.657384149709    0.977190323147   -0.054558789210
 N   -4.005626836813    2.863896463223   -0.080676129292
 H   -4.812566985344    2.243980866382   -0.031027988533
 C   -4.204158296898    4.237389659850   -0.094873445150
 N   -3.226508472810    5.125573621099   -0.095974372029
 N   -5.508232480325    4.658943012521   -0.039132818400
 H   -6.226770955952    4.073666878313   -0.448234060356
 H   -5.628337087216    5.654969431996   -0.189448382171
