33

 N    0.844378986102   -5.298708334500    0.048052165164
 C    2.072448986102   -4.677878334500    0.068522165164
 N    3.300198986102   -5.263568334500    0.098652165164
 C    4.277848986102   -4.375378334500    0.097552165164
 N    4.079318986102   -3.001888334500    0.083362165164
 H    4.886248986102   -2.381968334500    0.033712165164
 N    5.581928986102   -4.796928334500    0.041822165164
 H    6.300468986102   -4.211658334500    0.450922165164
 H    5.702028986102   -5.792958334500    0.192132165164
 C    2.832008986102   -2.355608334500    0.070142165164
 O    2.731068986102   -1.115178334500    0.057242165164
 C    1.770028986102   -3.314448334500    0.064302165164
 N    0.407488986102   -3.087598334500    0.039962165164
 C   -0.119761013898   -4.314998334500    0.030992165164
 H   -1.181871013898   -4.543068334500    0.012512165164
 H    0.685658986102   -6.301898334500    0.043842165164
NA    0.344188986102   -0.644508334500    0.012502165164
 C   -1.822414264628    3.412539218699   -0.066209365153
 N   -0.459873736653    3.185689590289   -0.041869360695
 C    0.067373951101    4.413098075390   -0.032903951569
 H    1.129497033591    4.641163791462   -0.014434872130
 N   -0.896762587127    5.396807050120   -0.049968206244
 H   -0.738036155530    6.399988880940   -0.045763075243
 C   -2.124831500910    4.775971227083   -0.070428820409
 C   -2.884396874352    2.453698145668   -0.072039409009
 O   -2.783461439317    1.213274875843   -0.059139109303
 N   -4.131704126421    3.099981015920   -0.085256449385
 H   -4.938644274952    2.480065419078   -0.035608308626
 C   -4.330235586506    4.473474212546   -0.099453765244
 N   -3.352585762419    5.361658173796   -0.100554692122
 N   -5.634309769933    4.895027565218   -0.043713138493
 H   -6.352848245560    4.309751431010   -0.452814380450
 H   -5.754414376825    5.891053984692   -0.194028702264
