33

 N    0.910032824341   -5.421647660700    0.050437333781
 C    2.138102824341   -4.800817660700    0.070907333781
 N    3.365852824341   -5.386507660700    0.101037333781
 C    4.343502824341   -4.498317660700    0.099937333781
 N    4.144972824341   -3.124827660700    0.085747333781
 H    4.951902824341   -2.504907660700    0.036097333781
 N    5.647582824341   -4.919867660700    0.044207333781
 H    6.366122824341   -4.334597660700    0.453307333781
 H    5.767682824341   -5.915897660700    0.194517333781
 C    2.897662824341   -2.478547660700    0.072527333781
 O    2.796722824341   -1.238117660700    0.059627333781
 C    1.835682824341   -3.437387660700    0.066687333781
 N    0.473142824341   -3.210537660700    0.042347333781
 C   -0.054107175659   -4.437937660700    0.033377333781
 H   -1.116217175659   -4.666007660700    0.014897333781
 H    0.751312824341   -6.424837660700    0.046227333781
NA    0.409842824341   -0.767447660700    0.014887333781
 C   -1.898060638393    3.554189950317   -0.068957557209
 N   -0.535520110418    3.327340321907   -0.044617552751
 C   -0.008272422664    4.554748807007   -0.035652143625
 H    1.053850659826    4.782814523080   -0.017183064186
 N   -0.972408960892    5.538457781738   -0.052716398300
 H   -0.813682529295    6.541639612558   -0.048511267299
 C   -2.200477874675    4.917621958701   -0.073177012465
 C   -2.960043248117    2.595348877286   -0.074787601065
 O   -2.859107813082    1.354925607461   -0.061887301359
 N   -4.207350500186    3.241631747538   -0.088004641441
 H   -5.014290648717    2.621716150696   -0.038356500682
 C   -4.405881960271    4.615124944164   -0.102201957300
 N   -3.428232136183    5.503308905414   -0.103302884178
 N   -5.709956143698    5.036678296835   -0.046461330549
 H   -6.428494619325    4.451402162628   -0.455562572505
 H   -5.830060750589    6.032704716310   -0.196776894320
