33

 N    0.953802049834   -5.503607211500    0.052027446193
 C    2.181872049834   -4.882777211500    0.072497446193
 N    3.409622049834   -5.468467211500    0.102627446193
 C    4.387272049834   -4.580277211500    0.101527446193
 N    4.188742049834   -3.206787211500    0.087337446193
 H    4.995672049834   -2.586867211500    0.037687446193
 N    5.691352049834   -5.001827211500    0.045797446193
 H    6.409892049834   -4.416557211500    0.454897446193
 H    5.811452049834   -5.997857211500    0.196107446193
 C    2.941432049834   -2.560507211500    0.074117446193
 O    2.840492049834   -1.320077211500    0.061217446193
 C    1.879452049834   -3.519347211500    0.068277446193
 N    0.516912049834   -3.292497211500    0.043937446193
 C   -0.010337950166   -4.519897211500    0.034967446193
 H   -1.072447950166   -4.747967211500    0.016487446193
 H    0.795082049834   -6.506797211500    0.047817446193
NA    0.453612049834   -0.849407211500    0.016477446193
 C   -1.948491554236    3.648623771395   -0.070789685246
 N   -0.585951026262    3.421774142986   -0.046449680788
 C   -0.058703338507    4.649182628086   -0.037484271662
 H    1.003419743983    4.877248344159   -0.019015192224
 N   -1.022839876735    5.632891602817   -0.054548526337
 H   -0.864113445139    6.636073433636   -0.050343395336
 C   -2.250908790519    5.012055779779   -0.075009140502
 C   -3.010474163961    2.689782698364   -0.076619729102
 O   -2.909538728925    1.449359428540   -0.063719429396
 N   -4.257781416029    3.336065568616   -0.089836769478
 H   -5.064721564560    2.716149971774   -0.040188628719
 C   -4.456312876115    4.709558765242   -0.104034085337
 N   -3.478663052027    5.597742726492   -0.105135012215
 N   -5.760387059542    5.131112117914   -0.048293458586
 H   -6.478925535168    4.545835983706   -0.457394700543
 H   -5.880491666433    6.127138537389   -0.198609022357
