33

 N    0.997571275327   -5.585566762299    0.053617558604
 C    2.225641275327   -4.964736762299    0.074087558604
 N    3.453391275327   -5.550426762299    0.104217558604
 C    4.431041275327   -4.662236762299    0.103117558604
 N    4.232511275327   -3.288746762299    0.088927558604
 H    5.039441275327   -2.668826762299    0.039277558604
 N    5.735121275327   -5.083786762299    0.047387558604
 H    6.453661275327   -4.498516762299    0.456487558604
 H    5.855221275327   -6.079816762299    0.197697558604
 C    2.985201275327   -2.642466762299    0.075707558604
 O    2.884261275327   -1.402036762299    0.062807558604
 C    1.923221275327   -3.601306762299    0.069867558604
 N    0.560681275327   -3.374456762299    0.045527558604
 C    0.033431275327   -4.601856762299    0.036557558604
 H   -1.028678724673   -4.829926762299    0.018077558604
 H    0.838851275327   -6.588756762299    0.049407558604
NA    0.497381275327   -0.931366762299    0.018067558604
 C   -1.998922470080    3.743057592474   -0.072621813284
 N   -0.636381942105    3.516207964064   -0.048281808825
 C   -0.109134254350    4.743616449165   -0.039316399699
 H    0.952988828139    4.971682165237   -0.020847320261
 N   -1.073270792578    5.727325423895   -0.056380654375
 H   -0.914544360982    6.730507254715   -0.052175523374
 C   -2.301339706362    5.106489600858   -0.076841268540
 C   -3.060905079804    2.784216519443   -0.078451857139
 O   -2.959969644769    1.543793249618   -0.065551557434
 N   -4.308212331872    3.430499389695   -0.091668897515
 H   -5.115152480403    2.810583792853   -0.042020756756
 C   -4.506743791958    4.803992586321   -0.105866213374
 N   -3.529093967870    5.692176547571   -0.106967140252
 N   -5.810817975385    5.225545938993   -0.050125586623
 H   -6.529356451012    4.640269804785   -0.459226828580
 H   -5.930922582276    6.221572358467   -0.200441150394
