33

 N    1.041340500819   -5.667526313099    0.055207671015
 C    2.269410500819   -5.046696313099    0.075677671015
 N    3.497160500819   -5.632386313099    0.105807671015
 C    4.474810500819   -4.744196313099    0.104707671015
 N    4.276280500819   -3.370706313099    0.090517671015
 H    5.083210500819   -2.750786313099    0.040867671015
 N    5.778890500819   -5.165746313099    0.048977671015
 H    6.497430500819   -4.580476313099    0.458077671015
 H    5.898990500819   -6.161776313099    0.199287671015
 C    3.028970500819   -2.724426313099    0.077297671015
 O    2.928030500819   -1.483996313099    0.064397671015
 C    1.966990500819   -3.683266313099    0.071457671015
 N    0.604450500819   -3.456416313099    0.047117671015
 C    0.077200500819   -4.683816313099    0.038147671015
 H   -0.984909499181   -4.911886313099    0.019667671015
 H    0.882620500819   -6.670716313099    0.050997671015
NA    0.541150500819   -1.013326313099    0.019657671015
 C   -2.049353385923    3.837491413553   -0.074453941321
 N   -0.686812857948    3.610641785143   -0.050113936863
 C   -0.159565170193    4.838050270243   -0.041148527737
 H    0.902557912296    5.066115986316   -0.022679448298
 N   -1.123701708422    5.821759244974   -0.058212782412
 H   -0.964975276825    6.824941075793   -0.054007651411
 C   -2.351770622205    5.200923421936   -0.078673396577
 C   -3.111335995647    2.878650340521   -0.080283985177
 O   -3.010400560612    1.638227070697   -0.067383685471
 N   -4.358643247716    3.524933210773   -0.093501025553
 H   -5.165583396247    2.905017613931   -0.043852884794
 C   -4.557174707801    4.898426407400   -0.107698341411
 N   -3.579524883713    5.786610368649   -0.108799268290
 N   -5.861248891228    5.319979760071   -0.051957714661
 H   -6.579787366855    4.734703625863   -0.461058956617
 H   -5.981353498119    6.316006179546   -0.202273278432
