33

 N    1.063225113566   -5.708506088499    0.056002727221
 C    2.291295113566   -5.087676088499    0.076472727221
 N    3.519045113566   -5.673366088499    0.106602727221
 C    4.496695113566   -4.785176088499    0.105502727221
 N    4.298165113566   -3.411686088499    0.091312727221
 H    5.105095113566   -2.791766088499    0.041662727221
 N    5.800775113566   -5.206726088499    0.049772727221
 H    6.519315113566   -4.621456088499    0.458872727221
 H    5.920875113566   -6.202756088499    0.200082727221
 C    3.050855113566   -2.765406088499    0.078092727221
 O    2.949915113566   -1.524976088499    0.065192727221
 C    1.988875113566   -3.724246088499    0.072252727221
 N    0.626335113566   -3.497396088499    0.047912727221
 C    0.099085113566   -4.724796088499    0.038942727221
 H   -0.963024886434   -4.952866088499    0.020462727221
 H    0.904505113566   -6.711696088499    0.051792727221
NA    0.563035113566   -1.054306088499    0.020452727221
 C   -2.074568843845    3.884708324092   -0.075370005340
 N   -0.712028315870    3.657858695682   -0.051030000881
 C   -0.184780628115    4.885267180782   -0.042064591755
 H    0.877342454374    5.113332896855   -0.023595512317
 N   -1.148917166343    5.868976155513   -0.059128846430
 H   -0.990190734747    6.872157986332   -0.054923715430
 C   -2.376986080127    5.248140332476   -0.079589460596
 C   -3.136551453569    2.925867251061   -0.081200049195
 O   -3.035616018534    1.685443981236   -0.068299749490
 N   -4.383858705637    3.572150121313   -0.094417089571
 H   -5.190798854168    2.952234524471   -0.044768948812
 C   -4.582390165723    4.945643317939   -0.108614405430
 N   -3.604740341635    5.833827279188   -0.109715332308
 N   -5.886464349150    5.367196670610   -0.052873778679
 H   -6.605002824777    4.781920536402   -0.461975020636
 H   -6.006568956041    6.363223090085   -0.203189342450
