33

 N    1.085109726312   -5.749485863899    0.056797783426
 C    2.313179726312   -5.128655863899    0.077267783426
 N    3.540929726312   -5.714345863899    0.107397783426
 C    4.518579726312   -4.826155863899    0.106297783426
 N    4.320049726312   -3.452665863899    0.092107783426
 H    5.126979726312   -2.832745863899    0.042457783426
 N    5.822659726312   -5.247705863899    0.050567783426
 H    6.541199726312   -4.662435863899    0.459667783426
 H    5.942759726312   -6.243735863899    0.200877783426
 C    3.072739726312   -2.806385863899    0.078887783426
 O    2.971799726312   -1.565955863899    0.065987783426
 C    2.010759726312   -3.765225863899    0.073047783426
 N    0.648219726312   -3.538375863899    0.048707783426
 C    0.120969726312   -4.765775863899    0.039737783426
 H   -0.941140273688   -4.993845863899    0.021257783426
 H    0.926389726312   -6.752675863899    0.052587783426
NA    0.584919726312   -1.095285863899    0.021247783426
 C   -2.099784301766    3.931925234631   -0.076286069358
 N   -0.737243773792    3.705075606221   -0.051946064900
 C   -0.209996086037    4.932484091322   -0.042980655774
 H    0.852126996453    5.160549807394   -0.024511576335
 N   -1.174132624265    5.916193066052   -0.060044910449
 H   -1.015406192669    6.919374896872   -0.055839779448
 C   -2.402201538048    5.295357243015   -0.080505524614
 C   -3.161766911490    2.973084161600   -0.082116113214
 O   -3.060831476455    1.732660891775   -0.069215813508
 N   -4.409074163559    3.619367031852   -0.095333153590
 H   -5.216014312090    2.999451435010   -0.045685012831
 C   -4.607605623644    4.992860228478   -0.109530469449
 N   -3.629955799557    5.881044189728   -0.110631396327
 N   -5.911679807071    5.414413581150   -0.053789842698
 H   -6.630218282698    4.829137446942   -0.462891084655
 H   -6.031784413963    6.410440000624   -0.204105406469
