33

 N    1.150763564551   -5.872425190098    0.059182952043
 C    2.378833564551   -5.251595190098    0.079652952043
 N    3.606583564551   -5.837285190098    0.109782952043
 C    4.584233564551   -4.949095190098    0.108682952043
 N    4.385703564551   -3.575605190098    0.094492952043
 H    5.192633564551   -2.955685190098    0.044842952043
 N    5.888313564551   -5.370645190098    0.052952952043
 H    6.606853564551   -4.785375190098    0.462052952043
 H    6.008413564551   -6.366675190098    0.203262952043
 C    3.138393564551   -2.929325190098    0.081272952043
 O    3.037453564551   -1.688895190098    0.068372952043
 C    2.076413564551   -3.888165190098    0.075432952043
 N    0.713873564551   -3.661315190098    0.051092952043
 C    0.186623564551   -4.888715190098    0.042122952043
 H   -0.875486435449   -5.116785190098    0.023642952043
 H    0.992043564551   -6.875615190098    0.054972952043
NA    0.650573564551   -1.218225190098    0.023632952043
 C   -2.175430675531    4.073575966249   -0.079034261414
 N   -0.812890147556    3.846726337839   -0.054694256956
 C   -0.285642459802    5.074134822939   -0.045728847830
 H    0.776480622688    5.302200539012   -0.027259768391
 N   -1.249778998030    6.057843797670   -0.062793102505
 H   -1.091052566433    7.061025628489   -0.058587971504
 C   -2.477847911813    5.437007974633   -0.083253716670
 C   -3.237413285255    3.114734893218   -0.084864305270
 O   -3.136477850220    1.874311623393   -0.071964005564
 N   -4.484720537324    3.761017763470   -0.098081345646
 H   -5.291660685855    3.141102166628   -0.048433204887
 C   -4.683251997409    5.134510960096   -0.112278661505
 N   -3.705602173322    6.022694921346   -0.113379588383
 N   -5.987326180836    5.556064312767   -0.056538034754
 H   -6.705864656463    4.970788178560   -0.465639276711
 H   -6.107430787728    6.552090732242   -0.206853598525
