33

 N    1.216417402791   -5.995364516298    0.061568120660
 C    2.444487402791   -5.374534516298    0.082038120660
 N    3.672237402791   -5.960224516298    0.112168120660
 C    4.649887402791   -5.072034516298    0.111068120660
 N    4.451357402791   -3.698544516298    0.096878120660
 H    5.258287402791   -3.078624516298    0.047228120660
 N    5.953967402791   -5.493584516298    0.055338120660
 H    6.672507402791   -4.908314516298    0.464438120660
 H    6.074067402791   -6.489614516298    0.205648120660
 C    3.204047402791   -3.052264516298    0.083658120660
 O    3.103107402791   -1.811834516298    0.070758120660
 C    2.142067402791   -4.011104516298    0.077818120660
 N    0.779527402791   -3.784254516298    0.053478120660
 C    0.252277402791   -5.011654516298    0.044508120660
 H   -0.809832597209   -5.239724516298    0.026028120660
 H    1.057697402791   -6.998554516298    0.057358120660
NA    0.716227402791   -1.341164516298    0.026018120660
 C   -2.251077049296    4.215226697867   -0.081782453470
 N   -0.888536521321    3.988377069457   -0.057442449012
 C   -0.361288833567    5.215785554557   -0.048477039886
 H    0.700834248923    5.443851270630   -0.030007960447
 N   -1.325425371795    6.199494529288   -0.065541294561
 H   -1.166698940198    7.202676360107   -0.061336163560
 C   -2.553494285578    5.578658706251   -0.086001908726
 C   -3.313059659020    3.256385624835   -0.087612497326
 O   -3.212124223985    2.015962355011   -0.074712197620
 N   -4.560366911089    3.902668495087   -0.100829537702
 H   -5.367307059620    3.282752898246   -0.051181396943
 C   -4.758898371174    5.276161691714   -0.115026853561
 N   -3.781248547086    6.164345652963   -0.116127780439
 N   -6.062972554601    5.697715044385   -0.059286226810
 H   -6.781511030228    5.112438910177   -0.468387468766
 H   -6.183077161492    6.693741463860   -0.209601790581
