33

 N    1.303955853776   -6.159283617897    0.064748345483
 C    2.532025853776   -5.538453617897    0.085218345483
 N    3.759775853776   -6.124143617897    0.115348345483
 C    4.737425853776   -5.235953617897    0.114248345483
 N    4.538895853776   -3.862463617897    0.100058345483
 H    5.345825853776   -3.242543617897    0.050408345483
 N    6.041505853776   -5.657503617897    0.058518345483
 H    6.760045853776   -5.072233617897    0.467618345483
 H    6.161605853776   -6.653533617897    0.208828345483
 C    3.291585853776   -3.216183617897    0.086838345483
 O    3.190645853776   -1.975753617897    0.073938345483
 C    2.229605853776   -4.175023617897    0.080998345483
 N    0.867065853776   -3.948173617897    0.056658345483
 C    0.339815853776   -5.175573617897    0.047688345483
 H   -0.722294146224   -5.403643617897    0.029208345483
 H    1.145235853776   -7.162473617897    0.060538345483
NA    0.803765853776   -1.505083617897    0.029198345483
 C   -2.351938880983    4.404094340024   -0.085446709545
 N   -0.989398353008    4.177244711614   -0.061106705086
 C   -0.462150665253    5.404653196714   -0.052141295960
 H    0.599972417236    5.632718912787   -0.033672216522
 N   -1.426287203481    6.388362171445   -0.069205550636
 H   -1.267560771885    7.391544002264   -0.065000419635
 C   -2.654356117265    5.767526348408   -0.089666164801
 C   -3.413921490707    3.445253266992   -0.091276753400
 O   -3.312986055672    2.204829997168   -0.078376453695
 N   -4.661228742775    4.091536137245   -0.104493793776
 H   -5.468168891306    3.471620540403   -0.054845653017
 C   -4.859760202861    5.465029333871   -0.118691109635
 N   -3.882110378773    6.353213295120   -0.119792036513
 N   -6.163834386288    5.886582686542   -0.062950482884
 H   -6.882372861915    5.301306552334   -0.472051724841
 H   -6.283938993179    6.882609106017   -0.213266046655
