33

 N    1.391494304762   -6.323202719497    0.067928570306
 C    2.619564304762   -5.702372719497    0.088398570306
 N    3.847314304762   -6.288062719497    0.118528570306
 C    4.824964304762   -5.399872719497    0.117428570306
 N    4.626434304762   -4.026382719497    0.103238570306
 H    5.433364304762   -3.406462719497    0.053588570306
 N    6.129044304762   -5.821422719497    0.061698570306
 H    6.847584304762   -5.236152719497    0.470798570306
 H    6.249144304762   -6.817452719497    0.212008570306
 C    3.379124304762   -3.380102719497    0.090018570306
 O    3.278184304762   -2.139672719497    0.077118570306
 C    2.317144304762   -4.338942719497    0.084178570306
 N    0.954604304762   -4.112092719497    0.059838570306
 C    0.427354304762   -5.339492719497    0.050868570306
 H   -0.634755695238   -5.567562719497    0.032388570306
 H    1.232774304762   -7.326392719497    0.063718570306
NA    0.891304304762   -1.669002719497    0.032378570306
 C   -2.452800712669    4.592961982181   -0.089110965619
 N   -1.090260184695    4.366112353771   -0.064770961161
 C   -0.563012496940    5.593520838871   -0.055805552035
 H    0.499110585550    5.821586554944   -0.037336472596
 N   -1.527149035168    6.577229813602   -0.072869806710
 H   -1.368422603572    7.580411644421   -0.068664675709
 C   -2.755217948951    5.956393990565   -0.093330420875
 C   -3.514783322393    3.634120909150   -0.094941009475
 O   -3.413847887358    2.393697639325   -0.082040709769
 N   -4.762090574462    4.280403779402   -0.108158049851
 H   -5.569030722993    3.660488182560   -0.058509909092
 C   -4.960622034547    5.653896976028   -0.122355365710
 N   -3.982972210460    6.542080937278   -0.123456292588
 N   -6.264696217974    6.075450328699   -0.066614738959
 H   -6.983234693601    5.490174194492   -0.475715980916
 H   -6.384800824866    7.071476748174   -0.216930302730
