33

 N    1.435263530255   -6.405162270296    0.069518682717
 C    2.663333530255   -5.784332270296    0.089988682717
 N    3.891083530255   -6.370022270296    0.120118682717
 C    4.868733530255   -5.481832270296    0.119018682717
 N    4.670203530255   -4.108342270296    0.104828682717
 H    5.477133530255   -3.488422270296    0.055178682717
 N    6.172813530255   -5.903382270296    0.063288682717
 H    6.891353530255   -5.318112270296    0.472388682717
 H    6.292913530255   -6.899412270296    0.213598682717
 C    3.422893530255   -3.462062270296    0.091608682717
 O    3.321953530255   -2.221632270296    0.078708682717
 C    2.360913530255   -4.420902270296    0.085768682717
 N    0.998373530255   -4.194052270296    0.061428682717
 C    0.471123530255   -5.421452270296    0.052458682717
 H   -0.590986469745   -5.649522270296    0.033978682717
 H    1.276543530255   -7.408352270296    0.065308682717
NA    0.935073530255   -1.750962270296    0.033968682717
 C   -2.503231628512    4.687395803259   -0.090943093656
 N   -1.140691100538    4.460546174850   -0.066603089198
 C   -0.613443412783    5.687954659950   -0.057637680072
 H    0.448679669706    5.916020376023   -0.039168600634
 N   -1.577579951011    6.671663634681   -0.074701934747
 H   -1.418853519415    7.674845465500   -0.070496803747
 C   -2.805648864795    6.050827811643   -0.095162548913
 C   -3.565214238237    3.728554730228   -0.096773137512
 O   -3.464278803202    2.488131460404   -0.083872837807
 N   -4.812521490305    4.374837600480   -0.109990177888
 H   -5.619461638836    3.754922003638   -0.060342037129
 C   -5.011052950391    5.748330797106   -0.124187493747
 N   -4.033403126303    6.636514758356   -0.125288420625
 N   -6.315127133818    6.169884149778   -0.068446866996
 H   -7.033665609445    5.584608015570   -0.477548108953
 H   -6.435231740709    7.165910569253   -0.218762430767
