33

 N    1.457148143001   -6.446142045696    0.070313738923
 C    2.685218143001   -5.825312045696    0.090783738923
 N    3.912968143001   -6.411002045696    0.120913738923
 C    4.890618143001   -5.522812045696    0.119813738923
 N    4.692088143001   -4.149322045696    0.105623738923
 H    5.499018143001   -3.529402045696    0.055973738923
 N    6.194698143001   -5.944362045696    0.064083738923
 H    6.913238143001   -5.359092045696    0.473183738923
 H    6.314798143001   -6.940392045696    0.214393738923
 C    3.444778143001   -3.503042045696    0.092403738923
 O    3.343838143001   -2.262612045696    0.079503738923
 C    2.382798143001   -4.461882045696    0.086563738923
 N    1.020258143001   -4.235032045696    0.062223738923
 C    0.493008143001   -5.462432045696    0.053253738923
 H   -0.569101856999   -5.690502045696    0.034773738923
 H    1.298428143001   -7.449332045696    0.066103738923
NA    0.956958143001   -1.791942045696    0.034763738923
 C   -2.528447086434    4.734612713799   -0.091859157675
 N   -1.165906558460    4.507763085389   -0.067519153217
 C   -0.638658870705    5.735171570489   -0.058553744091
 H    0.423464211785    5.963237286562   -0.040084664652
 N   -1.602795408933    6.718880545220   -0.075617998766
 H   -1.444068977337    7.722062376039   -0.071412867765
 C   -2.830864322716    6.098044722183   -0.096078612931
 C   -3.590429696158    3.775771640767   -0.097689201531
 O   -3.489494261123    2.535348370943   -0.084788901825
 N   -4.837736948227    4.422054511019   -0.110906241907
 H   -5.644677096758    3.802138914178   -0.061258101148
 C   -5.036268408312    5.795547707646   -0.125103557766
 N   -4.058618584225    6.683731668895   -0.126204484644
 N   -6.340342591739    6.217101060317   -0.069362931015
 H   -7.058881067366    5.631824926109   -0.478464172972
 H   -6.460447198631    7.213127479792   -0.219678494786
