33

 N    1.479032755747   -6.487121821096    0.071108795128
 C    2.707102755747   -5.866291821096    0.091578795128
 N    3.934852755747   -6.451981821096    0.121708795128
 C    4.912502755747   -5.563791821096    0.120608795128
 N    4.713972755747   -4.190301821096    0.106418795128
 H    5.520902755747   -3.570381821096    0.056768795128
 N    6.216582755747   -5.985341821096    0.064878795128
 H    6.935122755747   -5.400071821096    0.473978795128
 H    6.336682755747   -6.981371821096    0.215188795128
 C    3.466662755747   -3.544021821096    0.093198795128
 O    3.365722755747   -2.303591821096    0.080298795128
 C    2.404682755747   -4.502861821096    0.087358795128
 N    1.042142755747   -4.276011821096    0.063018795128
 C    0.514892755747   -5.503411821096    0.054048795128
 H   -0.547217244253   -5.731481821096    0.035568795128
 H    1.320312755747   -7.490311821096    0.066898795128
NA    0.978842755747   -1.832921821096    0.035558795128
 C   -2.553662544356    4.781829624338   -0.092775221694
 N   -1.191122016381    4.554979995928   -0.068435217236
 C   -0.663874328626    5.782388481028   -0.059469808110
 H    0.398248753863    6.010454197101   -0.041000728671
 N   -1.628010866854    6.766097455759   -0.076534062785
 H   -1.469284435258    7.769279286579   -0.072328931784
 C   -2.856079780638    6.145261632722   -0.096994676950
 C   -3.615645154080    3.822988551307   -0.098605265549
 O   -3.514709719045    2.582565281482   -0.085704965844
 N   -4.862952406148    4.469271421559   -0.111822305926
 H   -5.669892554680    3.849355824717   -0.062174165167
 C   -5.061483866234    5.842764618185   -0.126019621784
 N   -4.083834042146    6.730948579435   -0.127120548662
 N   -6.365558049661    6.264317970856   -0.070278995033
 H   -7.084096525288    5.679041836649   -0.479380236990
 H   -6.485662656552    7.260344390331   -0.220594558805
