33

 N    1.675994270465   -6.855939799695    0.078264300979
 C    2.904064270465   -6.235109799695    0.098734300979
 N    4.131814270465   -6.820799799695    0.128864300979
 C    5.109464270465   -5.932609799695    0.127764300979
 N    4.910934270465   -4.559119799695    0.113574300979
 H    5.717864270465   -3.939199799695    0.063924300979
 N    6.413544270465   -6.354159799695    0.072034300979
 H    7.132084270465   -5.768889799695    0.481134300979
 H    6.533644270465   -7.350189799695    0.222344300979
 C    3.663624270465   -3.912839799695    0.100354300979
 O    3.562684270465   -2.672409799695    0.087454300979
 C    2.601644270465   -4.871679799695    0.094514300979
 N    1.239104270465   -4.644829799695    0.070174300979
 C    0.711854270465   -5.872229799695    0.061204300979
 H   -0.350255729535   -6.100299799695    0.042724300979
 H    1.517274270465   -7.859129799695    0.074054300979
NA    1.175804270465   -2.201739799695    0.042714300979
 C   -2.780601665651    5.206781819191   -0.101019797862
 N   -1.418061137676    4.979932190782   -0.076679793403
 C   -0.890813449921    6.207340675882   -0.067714384277
 H    0.171309632568    6.435406391955   -0.049245304839
 N   -1.854949988149    7.191049650613   -0.084778638952
 H   -1.696223556553    8.194231481432   -0.080573507952
 C   -3.083018901933    6.570213827575   -0.105239253118
 C   -3.842584275375    4.247940746160   -0.106849841717
 O   -3.741648840340    3.007517476336   -0.093949542012
 N   -5.089891527443    4.894223616412   -0.120066882093
 H   -5.896831675974    4.274308019570   -0.070418741334
 C   -5.288422987529    6.267716813038   -0.134264197952
 N   -4.310773163441    7.155900774288   -0.135365124830
 N   -6.592497170956    6.689270165710   -0.078523571201
 H   -7.311035646583    6.103994031502   -0.487624813158
 H   -6.712601777847    7.685296585185   -0.228839134972
