33

 N    1.719763495958   -6.937899350494    0.079854413390
 C    2.947833495958   -6.317069350494    0.100324413390
 N    4.175583495958   -6.902759350494    0.130454413390
 C    5.153233495958   -6.014569350494    0.129354413390
 N    4.954703495958   -4.641079350494    0.115164413390
 H    5.761633495958   -4.021159350494    0.065514413390
 N    6.457313495958   -6.436119350494    0.073624413390
 H    7.175853495958   -5.850849350494    0.482724413390
 H    6.577413495958   -7.432149350494    0.223934413390
 C    3.707393495958   -3.994799350494    0.101944413390
 O    3.606453495958   -2.754369350494    0.089044413390
 C    2.645413495958   -4.953639350494    0.096104413390
 N    1.282873495958   -4.726789350494    0.071764413390
 C    0.755623495958   -5.954189350494    0.062794413390
 H   -0.306486504042   -6.182259350494    0.044314413390
 H    1.561043495958   -7.941089350494    0.075644413390
NA    1.219573495958   -2.283699350494    0.044304413390
 C   -2.831032581494    5.301215640270   -0.102851925899
 N   -1.468492053519    5.074366011860   -0.078511921441
 C   -0.941244365764    6.301774496960   -0.069546512315
 H    0.120878716725    6.529840213033   -0.051077432876
 N   -1.905380903993    7.285483471691   -0.086610766990
 H   -1.746654472396    8.288665302511   -0.082405635989
 C   -3.133449817776    6.664647648654   -0.107071381155
 C   -3.893015191218    4.342374567239   -0.108681969755
 O   -3.792079756183    3.101951297414   -0.095781670049
 N   -5.140322443287    4.988657437491   -0.121899010131
 H   -5.947262591818    4.368741840649   -0.072250869372
 C   -5.338853903372    6.362150634117   -0.136096325989
 N   -4.361204079284    7.250334595367   -0.137197252867
 N   -6.642928086799    6.783703986788   -0.080355699238
 H   -7.361466562426    6.198427852581   -0.489456941195
 H   -6.763032693690    7.779730406263   -0.230671263010
