33

 N    1.807301946943   -7.101818452094    0.083034638213
 C    3.035371946943   -6.480988452094    0.103504638213
 N    4.263121946943   -7.066678452094    0.133634638213
 C    5.240771946943   -6.178488452094    0.132534638213
 N    5.042241946943   -4.804998452094    0.118344638213
 H    5.849171946943   -4.185078452094    0.068694638213
 N    6.544851946943   -6.600038452094    0.076804638213
 H    7.263391946943   -6.014768452094    0.485904638213
 H    6.664951946943   -7.596068452094    0.227114638213
 C    3.794931946943   -4.158718452094    0.105124638213
 O    3.693991946943   -2.918288452094    0.092224638213
 C    2.732951946943   -5.117558452094    0.099284638213
 N    1.370411946943   -4.890708452094    0.074944638213
 C    0.843161946943   -6.118108452094    0.065974638213
 H   -0.218948053057   -6.346178452094    0.047494638213
 H    1.648581946943   -8.105008452094    0.078824638213
NA    1.307111946943   -2.447618452094    0.047484638213
 C   -2.931894413180    5.490083282427   -0.106516181973
 N   -1.569353885206    5.263233654017   -0.082176177515
 C   -1.042106197451    6.490642139118   -0.073210768389
 H    0.020016885038    6.718707855190   -0.054741688951
 N   -2.006242735679    7.474351113848   -0.090275023064
 H   -1.847516304083    8.477532944668   -0.086069892063
 C   -3.234311649463    6.853515290811   -0.110735637230
 C   -3.993877022905    4.531242209396   -0.112346225829
 O   -3.892941587870    3.290818939571   -0.099445926123
 N   -5.241184274973    5.177525079648   -0.125563266205
 H   -6.048124423504    4.557609482806   -0.075915125446
 C   -5.439715735059    6.551018276274   -0.139760582064
 N   -4.462065910971    7.439202237524   -0.140861508942
 N   -6.743789918486    6.972571628946   -0.084019955313
 H   -7.462328394113    6.387295494738   -0.493121197270
 H   -6.863894525377    7.968598048420   -0.234335519084
