33

 N    1.829186559690   -7.142798227493    0.083829694419
 C    3.057256559690   -6.521968227493    0.104299694419
 N    4.285006559690   -7.107658227493    0.134429694419
 C    5.262656559690   -6.219468227493    0.133329694419
 N    5.064126559690   -4.845978227493    0.119139694419
 H    5.871056559690   -4.226058227493    0.069489694419
 N    6.566736559690   -6.641018227493    0.077599694419
 H    7.285276559690   -6.055748227493    0.486699694419
 H    6.686836559690   -7.637048227493    0.227909694419
 C    3.816816559690   -4.199698227493    0.105919694419
 O    3.715876559690   -2.959268227493    0.093019694419
 C    2.754836559690   -5.158538227493    0.100079694419
 N    1.392296559690   -4.931688227493    0.075739694419
 C    0.865046559690   -6.159088227493    0.066769694419
 H   -0.197063440310   -6.387158227493    0.048289694419
 H    1.670466559690   -8.145988227493    0.079619694419
NA    1.328996559690   -2.488598227493    0.048279694419
 C   -2.957109871102    5.537300192966   -0.107432245992
 N   -1.594569343127    5.310450564556   -0.083092241534
 C   -1.067321655373    6.537859049657   -0.074126832408
 H   -0.005198572883    6.765924765729   -0.055657752969
 N   -2.031458193601    7.521568024388   -0.091191087083
 H   -1.872731762004    8.524749855207   -0.086985956082
 C   -3.259527107384    6.900732201350   -0.111651701248
 C   -4.019092480826    4.578459119935   -0.113262289848
 O   -3.918157045791    3.338035850111   -0.100361990142
 N   -5.266399732895    5.224741990187   -0.126479330224
 H   -6.073339881426    4.604826393345   -0.076831189465
 C   -5.464931192980    6.598235186813   -0.140676646083
 N   -4.487281368892    7.486419148063   -0.141777572961
 N   -6.769005376407    7.019788539485   -0.084936019332
 H   -7.487543852034    6.434512405277   -0.494037261288
 H   -6.889109983299    8.015814958960   -0.235251583103
