33

 N    1.851071172436   -7.183778002893    0.084624750624
 C    3.079141172436   -6.562948002893    0.105094750624
 N    4.306891172436   -7.148638002893    0.135224750624
 C    5.284541172436   -6.260448002893    0.134124750624
 N    5.086011172436   -4.886958002893    0.119934750624
 H    5.892941172436   -4.267038002893    0.070284750624
 N    6.588621172436   -6.681998002893    0.078394750624
 H    7.307161172436   -6.096728002893    0.487494750624
 H    6.708721172436   -7.678028002893    0.228704750624
 C    3.838701172436   -4.240678002893    0.106714750624
 O    3.737761172436   -3.000248002893    0.093814750624
 C    2.776721172436   -5.199518002893    0.100874750624
 N    1.414181172436   -4.972668002893    0.076534750624
 C    0.886931172436   -6.200068002893    0.067564750624
 H   -0.175178827564   -6.428138002893    0.049084750624
 H    1.692351172436   -8.186968002893    0.080414750624
NA    1.350881172436   -2.529578002893    0.049074750624
 C   -2.982325329024    5.584517103506   -0.108348310011
 N   -1.619784801049    5.357667475096   -0.084008305552
 C   -1.092537113294    6.585075960196   -0.075042896427
 H   -0.030414030805    6.813141676269   -0.056573816988
 N   -2.056673651522    7.568784934927   -0.092107151102
 H   -1.897947219926    8.571966765746   -0.087902020101
 C   -3.284742565306    6.947949111889   -0.112567765267
 C   -4.044307938748    4.625676030474   -0.114178353866
 O   -3.943372503713    3.385252760650   -0.101278054161
 N   -5.291615190816    5.271958900726   -0.127395394242
 H   -6.098555339347    4.652043303884   -0.077747253484
 C   -5.490146650902    6.645452097353   -0.141592710101
 N   -4.512496826814    7.533636058602   -0.142693636979
 N   -6.794220834329    7.067005450024   -0.085852083350
 H   -7.512759309956    6.481729315816   -0.494953325307
 H   -6.914325441220    8.063031869499   -0.236167647121
