33

 N    1.982378848915   -7.429656655292    0.089395087858
 C    3.210448848915   -6.808826655292    0.109865087858
 N    4.438198848915   -7.394516655292    0.139995087858
 C    5.415848848915   -6.506326655292    0.138895087858
 N    5.217318848915   -5.132836655292    0.124705087858
 H    6.024248848915   -4.512916655292    0.075055087858
 N    6.719928848915   -6.927876655292    0.083165087858
 H    7.438468848915   -6.342606655292    0.492265087858
 H    6.840028848915   -7.923906655292    0.233475087858
 C    3.970008848915   -4.486556655292    0.111485087858
 O    3.869068848915   -3.246126655292    0.098585087858
 C    2.908028848915   -5.445396655292    0.105645087858
 N    1.545488848915   -5.218546655292    0.081305087858
 C    1.018238848915   -6.445946655292    0.072335087858
 H   -0.043871151085   -6.674016655292    0.053855087858
 H    1.823658848915   -8.432846655292    0.085185087858
NA    1.482188848915   -2.775456655292    0.053845087858
 C   -3.133618076554    5.867818566741   -0.113844694123
 N   -1.771077548579    5.640968938331   -0.089504689664
 C   -1.243829860824    6.868377423432   -0.080539280538
 H   -0.181706778335    7.096443139504   -0.062070201100
 N   -2.207966399052    7.852086398162   -0.097603535213
 H   -2.049239967456    8.855268228982   -0.093398404213
 C   -3.436035312836    7.231250575125   -0.118064149379
 C   -4.195600686278    4.908977493710   -0.119674737978
 O   -4.094665251243    3.668554223886   -0.106774438273
 N   -5.442907938346    5.555260363962   -0.132891778354
 H   -6.249848086877    4.935344767120   -0.083243637595
 C   -5.641439398432    6.928753560588   -0.147089094213
 N   -4.663789574344    7.816937521838   -0.148190021091
 N   -6.945513581859    7.350306913260   -0.091348467462
 H   -7.664052057486    6.765030779052   -0.500449709419
 H   -7.065618188750    8.346333332734   -0.241664031233
