17

 N   -1.811300910456   -1.346753807620    0.127340083962
 C   -0.601112843612   -0.691547603944    0.131301707930
 N    0.632299570691   -1.290225298406    0.143339992835
 C    1.602722770747   -0.400049156795    0.131467535862
 N    1.399645933334    0.961588976719    0.124632375520
 H    2.203473058585    1.581549516474    0.042644353098
 N    2.928177524984   -0.818723878475    0.053120232627
 H    3.582713730316   -0.286920654075    0.620761009357
 H    3.006982612375   -1.819424022410    0.214703570616
 C    0.140372191017    1.647622680250    0.137586162197
 O    0.112791821912    2.875795765027    0.133498033769
 C   -0.932412934959    0.673929290976    0.143787360137
 N   -2.303486236728    0.860260336289    0.143712175421
 C   -2.797009731239   -0.378342677756    0.133382075756
 H   -3.854507644507   -0.632489299588    0.130435431330
 H   -1.936397906987   -2.353336892852    0.118680532931
NA    0.625588420044   -1.296245812654   -0.856619363272
