17

 N   -1.810946305692   -1.346435694804    0.180176083325
 C   -0.600758238848   -0.691229491128    0.184137707293
 N    0.632654175455   -1.289907185590    0.196175992198
 C    1.603077375511   -0.399731043979    0.184303535225
 N    1.400000538098    0.961907089535    0.177468374883
 H    2.203827663349    1.581867629290    0.095480352461
 N    2.928532129748   -0.818405765659    0.105956231990
 H    3.583068335080   -0.286602541259    0.673597008720
 H    3.007337217139   -1.819105909594    0.267539569979
 C    0.140726795781    1.647940793066    0.190422161560
 O    0.113146426676    2.876113877843    0.186334033132
 C   -0.932058330195    0.674247403792    0.196623359500
 N   -2.303131631964    0.860578449105    0.196548174784
 C   -2.796655126475   -0.378024564940    0.186218075119
 H   -3.854153039743   -0.632171186772    0.183271430693
 H   -1.936043302223   -2.353018780036    0.171516532294
NA    0.623258564550   -1.298335905537   -1.203767106351
