17

 N   -1.810857654501   -1.346356166600    0.193385083166
 C   -0.600669587657   -0.691149962924    0.197346707134
 N    0.632742826646   -1.289827657386    0.209384992039
 C    1.603166026702   -0.399651515775    0.197512535066
 N    1.400089189289    0.961986617739    0.190677374724
 H    2.203916314540    1.581947157494    0.108689352302
 N    2.928620780939   -0.818326237455    0.119165231831
 H    3.583156986271   -0.286523013055    0.686806008561
 H    3.007425868330   -1.819026381390    0.280748569820
 C    0.140815446972    1.648020321270    0.203631161401
 O    0.113235077867    2.876193406047    0.199543032973
 C   -0.931969679004    0.674326931996    0.209832359341
 N   -2.303042980773    0.860657977309    0.209757174625
 C   -2.796566475284   -0.377945036736    0.199427074960
 H   -3.854064388552   -0.632091658568    0.196480430534
 H   -1.935954651032   -2.352939251832    0.184725532135
NA    0.622676100676   -1.298858428757   -1.290554042121
