17

 N   -1.810680352119   -1.346197110192    0.219803082848
 C   -0.600492285275   -0.690990906516    0.223764706816
 N    0.632920129028   -1.289668600978    0.235802991721
 C    1.603343329084   -0.399492459367    0.223930534748
 N    1.400266491671    0.962145674147    0.217095374406
 H    2.204093616922    1.582106213902    0.135107351984
 N    2.928798083321   -0.818167181047    0.145583231513
 H    3.583334288653   -0.286363956647    0.713224008243
 H    3.007603170712   -1.818867324982    0.307166569502
 C    0.140992749354    1.648179377678    0.230049161083
 O    0.113412380249    2.876352462455    0.225961032655
 C   -0.931792376622    0.674485988404    0.236250359023
 N   -2.302865678391    0.860817033717    0.236175174307
 C   -2.796389172902   -0.377785980328    0.225845074642
 H   -3.853887086170   -0.631932602160    0.222898430216
 H   -1.935777348650   -2.352780195424    0.211143531817
NA    0.621511172929   -1.299903475199   -1.464127913661
