17

 N   -1.810503049737   -1.346038053783    0.246221082529
 C   -0.600314982893   -0.690831850107    0.250182706497
 N    0.633097431410   -1.289509544569    0.262220991402
 C    1.603520631466   -0.399333402958    0.250348534429
 N    1.400443794053    0.962304730556    0.243513374087
 H    2.204270919304    1.582265270311    0.161525351665
 N    2.928975385703   -0.818008124638    0.172001231194
 H    3.583511591035   -0.286204900238    0.739642007924
 H    3.007780473094   -1.818708268573    0.333584569183
 C    0.141170051736    1.648338434087    0.256467160764
 O    0.113589682631    2.876511518864    0.252379032336
 C   -0.931615074240    0.674645044813    0.262668358704
 N   -2.302688376009    0.860976090126    0.262593173988
 C   -2.796211870520   -0.377626923919    0.252263074323
 H   -3.853709783788   -0.631773545751    0.249316429897
 H   -1.935600046268   -2.352621139015    0.237561531498
NA    0.620346245181   -1.300948521640   -1.637701785200
