17

 N   -1.803322303270   -1.339596269253    1.316150069635
 C   -0.593134236426   -0.684390065577    1.320111693603
 N    0.640278177877   -1.283067760039    1.332149978508
 C    1.610701377933   -0.392891618428    1.320277521535
 N    1.407624540520    0.968746515086    1.313442361193
 H    2.211451665771    1.588707054841    1.231454338771
 N    2.936156132170   -0.811566340108    1.241930218300
 H    3.590692337502   -0.279763115708    1.809570995030
 H    3.014961219561   -1.812266484043    1.403513556289
 C    0.148350798203    1.654780218617    1.326396147870
 O    0.120770429098    2.882953303394    1.322308019442
 C   -0.924434327773    0.681086829343    1.332597345810
 N   -2.295507629542    0.867417874656    1.332522161094
 C   -2.789031124053   -0.371185139389    1.322192061429
 H   -3.846529037321   -0.625331761221    1.319245417003
 H   -1.928419299801   -2.346179354485    1.307490518604
NA    0.573166671411   -1.343272902517   -8.667443582558
