17

 N   -1.810237096165   -1.345799469171    0.285848082052
 C   -0.600049029321   -0.690593265495    0.289809706020
 N    0.633363384982   -1.289270959957    0.301847990925
 C    1.603786585038   -0.399094818346    0.289975533952
 N    1.400709747625    0.962543315168    0.283140373610
 H    2.204536872876    1.582503854923    0.201152351188
 N    2.929241339275   -0.817769540026    0.211628230717
 H    3.583777544607   -0.285966315626    0.779269007447
 H    3.008046426666   -1.818469683961    0.373211568706
 C    0.141436005308    1.648577018699    0.296094160287
 O    0.113855636203    2.876750103476    0.292006031859
 C   -0.931349120668    0.674883629425    0.302295358227
 N   -2.302422422437    0.861214674738    0.302220173511
 C   -2.795945916948   -0.377388339307    0.291890073846
 H   -3.853443830216   -0.631534961139    0.288943429420
 H   -1.935334092696   -2.352382554403    0.277188531021
NA    0.618598853560   -1.302516091302   -1.898062592510
