17

 N   -1.809971142592   -1.345560884559    0.325475081574
 C   -0.599783075748   -0.690354680883    0.329436705542
 N    0.633629338555   -1.289032375345    0.341474990447
 C    1.604052538611   -0.398856233734    0.329602533474
 N    1.400975701198    0.962781899780    0.322767373132
 H    2.204802826449    1.582742439535    0.240779350710
 N    2.929507292848   -0.817530955414    0.251255230239
 H    3.584043498180   -0.285727731014    0.818896006969
 H    3.008312380239   -1.818231099349    0.412838568228
 C    0.141701958881    1.648815603311    0.335721159809
 O    0.114121589776    2.876988688088    0.331633031381
 C   -0.931083167095    0.675122214037    0.341922357749
 N   -2.302156468864    0.861453259350    0.341847173033
 C   -2.795679963375   -0.377149754695    0.331517073368
 H   -3.853177876643   -0.631296376527    0.328570428942
 H   -1.935068139123   -2.352143969791    0.316815530543
NA    0.616851461939   -1.304083660964   -2.158423399819
