17

 N   -1.809705189019   -1.345322299947    0.365102081097
 C   -0.599517122175   -0.690116096271    0.369063705065
 N    0.633895292128   -1.288793790733    0.381101989970
 C    1.604318492184   -0.398617649122    0.369229532997
 N    1.401241654771    0.963020484392    0.362394372655
 H    2.205068780022    1.582981024147    0.280406350233
 N    2.929773246421   -0.817292370802    0.290882229762
 H    3.584309451753   -0.285489146402    0.858523006492
 H    3.008578333812   -1.817992514737    0.452465567751
 C    0.141967912454    1.649054187923    0.375348159332
 O    0.114387543349    2.877227272700    0.371260030904
 C   -0.930817213522    0.675360798649    0.381549357272
 N   -2.301890515291    0.861691843962    0.381474172556
 C   -2.795414009802   -0.376911170083    0.371144072891
 H   -3.852911923070   -0.631057791915    0.368197428465
 H   -1.934802185550   -2.351905385179    0.356442530066
NA    0.615104070318   -1.305651230627   -2.418784207129
