17

 N   -1.809616537828   -1.345242771743    0.378311080937
 C   -0.599428470984   -0.690036568067    0.382272704905
 N    0.633983943319   -1.288714262529    0.394310989810
 C    1.604407143375   -0.398538120918    0.382438532837
 N    1.401330305962    0.963100012596    0.375603372495
 H    2.205157431213    1.583060552351    0.293615350073
 N    2.929861897612   -0.817212842598    0.304091229602
 H    3.584398102944   -0.285409618198    0.871732006332
 H    3.008666985003   -1.817912986533    0.465674567591
 C    0.142056563645    1.649133716127    0.388557159172
 O    0.114476194540    2.877306800904    0.384469030744
 C   -0.930728562331    0.675440326853    0.394758357112
 N   -2.301801864100    0.861771372166    0.394683172396
 C   -2.795325358611   -0.376831641879    0.384353072731
 H   -3.852823271879   -0.630978263711    0.381406428305
 H   -1.934713534359   -2.351825856975    0.369651529906
NA    0.614521606444   -1.306173753847   -2.505571142899
