17

 N   -1.808907328300   -1.344606546110    0.483983079664
 C   -0.598719261456   -0.689400342434    0.487944703632
 N    0.634693152847   -1.288078036896    0.499982988537
 C    1.605116352903   -0.397901895285    0.488110531564
 N    1.402039515490    0.963736238229    0.481275371222
 H    2.205866640741    1.583696777984    0.399287348800
 N    2.930571107140   -0.816576616965    0.409763228329
 H    3.585107312472   -0.284773392565    0.977404005059
 H    3.009376194531   -1.817276760900    0.571346566318
 C    0.142765773173    1.649769941760    0.494229157899
 O    0.115185404068    2.877943026537    0.490141029471
 C   -0.930019352803    0.676076552486    0.500430355839
 N   -2.301092654572    0.862407597799    0.500355171123
 C   -2.794616149083   -0.376195416246    0.490025071458
 H   -3.852114062351   -0.630342038078    0.487078427032
 H   -1.934004324831   -2.351189631342    0.475323528633
NA    0.609861895454   -1.310353939613   -3.199866629058
