17

 N   -1.808641374727   -1.344367961498    0.523610079186
 C   -0.598453307883   -0.689161757822    0.527571703154
 N    0.634959106420   -1.287839452284    0.539609988059
 C    1.605382306476   -0.397663310673    0.527737531086
 N    1.402305469063    0.963974822841    0.520902370744
 H    2.206132594314    1.583935362596    0.438914348322
 N    2.930837060713   -0.816338032353    0.449390227851
 H    3.585373266045   -0.284534807953    1.017031004581
 H    3.009642148104   -1.817038176288    0.610973565840
 C    0.143031726746    1.650008526372    0.533856157421
 O    0.115451357641    2.878181611149    0.529768028993
 C   -0.929753399230    0.676315137098    0.540057355361
 N   -2.300826700999    0.862646182411    0.539982170645
 C   -2.794350195510   -0.375956831634    0.529652070980
 H   -3.851848108778   -0.630103453466    0.526705426554
 H   -1.933738371258   -2.350951046730    0.514950528155
NA    0.608114503833   -1.311921509275   -3.460227436367
