17

 N   -1.808464072346   -1.344208905090    0.550028078868
 C   -0.598276005502   -0.689002701414    0.553989702836
 N    0.635136408801   -1.287680395876    0.566027987741
 C    1.605559608857   -0.397504254265    0.554155530768
 N    1.402482771444    0.964133879249    0.547320370426
 H    2.206309896695    1.584094419004    0.465332348004
 N    2.931014363094   -0.816178975945    0.475808227533
 H    3.585550568426   -0.284375751545    1.043449004263
 H    3.009819450485   -1.816879119880    0.637391565522
 C    0.143209029127    1.650167582780    0.560274157103
 O    0.115628660022    2.878340667557    0.556186028675
 C   -0.929576096849    0.676474193506    0.566475355043
 N   -2.300649398618    0.862805238819    0.566400170327
 C   -2.794172893129   -0.375797775226    0.556070070662
 H   -3.851670806397   -0.629944397058    0.553123426236
 H   -1.933561068877   -2.350791990322    0.541368527837
NA    0.606949576086   -1.312966555716   -3.633801307907
