17

 N   -1.808375421155   -1.344129376886    0.563237078709
 C   -0.598187354311   -0.688923173210    0.567198702677
 N    0.635225059992   -1.287600867672    0.579236987582
 C    1.605648260048   -0.397424726061    0.567364530609
 N    1.402571422635    0.964213407453    0.560529370267
 H    2.206398547886    1.584173947208    0.478541347845
 N    2.931103014285   -0.816099447741    0.489017227374
 H    3.585639219617   -0.284296223341    1.056658004104
 H    3.009908101676   -1.816799591676    0.650600565363
 C    0.143297680318    1.650247110984    0.573483156944
 O    0.115717311213    2.878420195761    0.569395028516
 C   -0.929487445658    0.676553721710    0.579684354884
 N   -2.300560747427    0.862884767023    0.579609170168
 C   -2.794084241938   -0.375718247022    0.569279070503
 H   -3.851582155206   -0.629864868854    0.566332426077
 H   -1.933472417686   -2.350712462118    0.554577527678
NA    0.606367112212   -1.313489078937   -3.720588243677
