17

 N   -1.808286769964   -1.344049848682    0.576446078550
 C   -0.598098703120   -0.688843645006    0.580407702518
 N    0.635313711183   -1.287521339468    0.592445987423
 C    1.605736911239   -0.397345197857    0.580573530450
 N    1.402660073826    0.964292935657    0.573738370108
 H    2.206487199077    1.584253475412    0.491750347686
 N    2.931191665476   -0.816019919537    0.502226227215
 H    3.585727870808   -0.284216695137    1.069867003945
 H    3.009996752867   -1.816720063472    0.663809565204
 C    0.143386331509    1.650326639188    0.586692156785
 O    0.115805962404    2.878499723965    0.582604028357
 C   -0.929398794467    0.676633249914    0.592893354725
 N   -2.300472096236    0.862964295227    0.592818170009
 C   -2.793995590747   -0.375638718818    0.582488070344
 H   -3.851493504015   -0.629785340650    0.579541425918
 H   -1.933383766495   -2.350632933914    0.567786527519
NA    0.605784648339   -1.314011602158   -3.807375179447
