17

 N   -1.808020816391   -1.343811264069    0.616073078072
 C   -0.597832749547   -0.688605060393    0.620034702040
 N    0.635579664756   -1.287282754855    0.632072986945
 C    1.606002864812   -0.397106613244    0.620200529972
 N    1.402926027399    0.964531520270    0.613365369630
 H    2.206753152650    1.584492060025    0.531377347208
 N    2.931457619049   -0.815781334924    0.541853226737
 H    3.585993824381   -0.283978110524    1.109494003467
 H    3.010262706440   -1.816481478859    0.703436564726
 C    0.143652285082    1.650565223801    0.626319156307
 O    0.116071915977    2.878738308578    0.622231027879
 C   -0.929132840894    0.676871834527    0.632520354247
 N   -2.300206142663    0.863202879840    0.632445169531
 C   -2.793729637174   -0.375400134205    0.622115069866
 H   -3.851227550442   -0.629546756037    0.619168425440
 H   -1.933117812922   -2.350394349301    0.607413527041
NA    0.604037256717   -1.315579171820   -4.067735986756
