17

 N   -1.807932165200   -1.343731735865    0.629282077913
 C   -0.597744098356   -0.688525532189    0.633243701881
 N    0.635668315947   -1.287203226651    0.645281986786
 C    1.606091516003   -0.397027085040    0.633409529813
 N    1.403014678590    0.964611048474    0.626574369471
 H    2.206841803841    1.584571588229    0.544586347049
 N    2.931546270240   -0.815701806720    0.555062226578
 H    3.586082475572   -0.283898582320    1.122703003308
 H    3.010351357631   -1.816401950655    0.716645564567
 C    0.143740936273    1.650644752005    0.639528156148
 O    0.116160567168    2.878817836782    0.635440027720
 C   -0.929044189703    0.676951362731    0.645729354088
 N   -2.300117491472    0.863282408044    0.645654169372
 C   -2.793640985983   -0.375320606001    0.635324069707
 H   -3.851138899251   -0.629467227833    0.632377425281
 H   -1.933029161731   -2.350314821097    0.620622526882
NA    0.603454792844   -1.316101695041   -4.154522922526
