17

 N   -1.807754862818   -1.343572679457    0.655700077594
 C   -0.597566795974   -0.688366475781    0.659661701562
 N    0.635845618329   -1.287044170243    0.671699986467
 C    1.606268818385   -0.396868028632    0.659827529494
 N    1.403191980972    0.964770104882    0.652992369152
 H    2.207019106223    1.584730644637    0.571004346730
 N    2.931723572622   -0.815542750312    0.581480226259
 H    3.586259777954   -0.283739525912    1.149121002989
 H    3.010528660013   -1.816242894247    0.743063564248
 C    0.143918238655    1.650803808413    0.665946155829
 O    0.116337869550    2.878976893190    0.661858027401
 C   -0.928866887321    0.677110419139    0.672147353769
 N   -2.299940189090    0.863441464452    0.672072169053
 C   -2.793463683601   -0.375161549593    0.661742069388
 H   -3.850961596869   -0.629308171425    0.658795424962
 H   -1.932851859349   -2.350155764689    0.647040526563
NA    0.602289865096   -1.317146741482   -4.328096794066
