17

 N   -1.807577560436   -1.343413623049    0.682118077276
 C   -0.597389493592   -0.688207419373    0.686079701244
 N    0.636022920711   -1.286885113835    0.698117986149
 C    1.606446120767   -0.396708972224    0.686245529176
 N    1.403369283354    0.964929161290    0.679410368834
 H    2.207196408605    1.584889701045    0.597422346412
 N    2.931900875004   -0.815383693904    0.607898225941
 H    3.586437080336   -0.283580469504    1.175539002671
 H    3.010705962395   -1.816083837839    0.769481563930
 C    0.144095541037    1.650962864821    0.692364155511
 O    0.116515171932    2.879135949598    0.688276027083
 C   -0.928689584939    0.677269475547    0.698565353451
 N   -2.299762886708    0.863600520860    0.698490168735
 C   -2.793286381219   -0.375002493185    0.688160069070
 H   -3.850784294487   -0.629149115017    0.685213424644
 H   -1.932674556967   -2.349996708281    0.673458526245
NA    0.601124937349   -1.318191787924   -4.501670665605
