17

 N   -1.807488909245   -1.343334094845    0.695327077117
 C   -0.597300842401   -0.688127891169    0.699288701085
 N    0.636111571902   -1.286805585631    0.711326985990
 C    1.606534771958   -0.396629444020    0.699454529017
 N    1.403457934545    0.965008689494    0.692619368675
 H    2.207285059796    1.584969229249    0.610631346253
 N    2.931989526195   -0.815304165700    0.621107225782
 H    3.586525731527   -0.283500941300    1.188748002512
 H    3.010794613586   -1.816004309635    0.782690563771
 C    0.144184192228    1.651042393025    0.705573155352
 O    0.116603823123    2.879215477802    0.701485026924
 C   -0.928600933748    0.677349003751    0.711774353292
 N   -2.299674235517    0.863680049064    0.711699168576
 C   -2.793197730028   -0.374922964981    0.701369068911
 H   -3.850695643296   -0.629069586813    0.698422424485
 H   -1.932585905776   -2.349917180077    0.686667526086
NA    0.600542473475   -1.318714311144   -4.588457601375
