17

 N   -1.806957002099   -1.342856925620    0.774581076162
 C   -0.596768935255   -0.687650721944    0.778542700130
 N    0.636643479048   -1.286328416406    0.790580985035
 C    1.607066679104   -0.396152274795    0.778708528062
 N    1.403989841691    0.965485858719    0.771873367720
 H    2.207816966942    1.585446398474    0.689885345298
 N    2.932521433341   -0.814826996475    0.700361224827
 H    3.587057638673   -0.283023772075    1.268002001557
 H    3.011326520732   -1.815527140410    0.861944562816
 C    0.144716099374    1.651519562250    0.784827154397
 O    0.117135730269    2.879692647027    0.780739025969
 C   -0.928069026602    0.677826172976    0.791028352337
 N   -2.299142328371    0.864157218289    0.790953167621
 C   -2.792665822882   -0.374445795756    0.780623067956
 H   -3.850163736150   -0.628592417588    0.777676423530
 H   -1.932053998630   -2.349440010852    0.765921525131
NA    0.597047690233   -1.321849450468   -5.109179215994
