17

 N   -1.806868350908   -1.342777397416    0.787790076002
 C   -0.596680284064   -0.687571193740    0.791751699970
 N    0.636732130239   -1.286248888202    0.803789984875
 C    1.607155330295   -0.396072746591    0.791917527902
 N    1.404078492882    0.965565386923    0.785082367560
 H    2.207905618133    1.585525926678    0.703094345138
 N    2.932610084532   -0.814747468271    0.713570224667
 H    3.587146289864   -0.282944243871    1.281211001397
 H    3.011415171923   -1.815447612206    0.875153562656
 C    0.144804750565    1.651599090454    0.798036154237
 O    0.117224381460    2.879772175231    0.793948025809
 C   -0.927980375411    0.677905701180    0.804237352177
 N   -2.299053677180    0.864236746493    0.804162167461
 C   -2.792577171691   -0.374366267552    0.793832067796
 H   -3.850075084959   -0.628512889384    0.790885423370
 H   -1.931965347439   -2.349360482648    0.779130524971
NA    0.596465226359   -1.322371973689   -5.195966151764
