17

 N   -1.806779699717   -1.342697869212    0.800999075843
 C   -0.596591632873   -0.687491665536    0.804960699811
 N    0.636820781430   -1.286169359998    0.816998984716
 C    1.607243981486   -0.395993218387    0.805126527743
 N    1.404167144073    0.965644915127    0.798291367401
 H    2.207994269324    1.585605454882    0.716303344979
 N    2.932698735723   -0.814667940067    0.726779224508
 H    3.587234941055   -0.282864715667    1.294420001238
 H    3.011503823114   -1.815368084002    0.888362562497
 C    0.144893401756    1.651678618658    0.811245154078
 O    0.117313032651    2.879851703435    0.807157025650
 C   -0.927891724220    0.677985229384    0.817446352018
 N   -2.298965025989    0.864316274697    0.817371167302
 C   -2.792488520500   -0.374286739348    0.807041067637
 H   -3.849986433768   -0.628433361180    0.804094423211
 H   -1.931876696248   -2.349280954444    0.792339524812
NA    0.595882762486   -1.322894496910   -5.282753087534
