17

 N   -1.806513746145   -1.342459284600    0.840626075366
 C   -0.596325679301   -0.687253080924    0.844587699334
 N    0.637086735002   -1.285930775386    0.856625984239
 C    1.607509935058   -0.395754633775    0.844753527266
 N    1.404433097645    0.965883499739    0.837918366924
 H    2.208260222896    1.585844039494    0.755930344502
 N    2.932964689295   -0.814429355455    0.766406224031
 H    3.587500894627   -0.282626131055    1.334047000761
 H    3.011769776686   -1.815129499390    0.927989562020
 C    0.145159355328    1.651917203270    0.850872153601
 O    0.117578986223    2.880090288047    0.846784025173
 C   -0.927625770648    0.678223813996    0.857073351541
 N   -2.298699072417    0.864554859309    0.856998166825
 C   -2.792222566928   -0.374048154736    0.846668067160
 H   -3.849720480196   -0.628194776568    0.843721422734
 H   -1.931610742676   -2.349042369832    0.831966524335
NA    0.594135370864   -1.324462066572   -5.543113894844
