17

 N   -1.806336443763   -1.342300228192    0.867044075047
 C   -0.596148376919   -0.687094024516    0.871005699015
 N    0.637264037384   -1.285771718978    0.883043983920
 C    1.607687237440   -0.395595577367    0.871171526947
 N    1.404610400027    0.966042556147    0.864336366605
 H    2.208437525278    1.586003095902    0.782348344183
 N    2.933141991677   -0.814270299047    0.792824223712
 H    3.587678197009   -0.282467074647    1.360465000442
 H    3.011947079068   -1.814970442982    0.954407561701
 C    0.145336657710    1.652076259678    0.877290153282
 O    0.117756288605    2.880249344455    0.873202024854
 C   -0.927448468266    0.678382870404    0.883491351222
 N   -2.298521770035    0.864713915717    0.883416166506
 C   -2.792045264546   -0.373889098328    0.873086066841
 H   -3.849543177814   -0.628035720160    0.870139422415
 H   -1.931433440294   -2.348883313424    0.858384524016
NA    0.592970443117   -1.325507113013   -5.716687766383
