17

 N   -1.806070490190   -1.342061643580    0.906671074570
 C   -0.595882423346   -0.686855439904    0.910632698538
 N    0.637529990957   -1.285533134366    0.922670983443
 C    1.607953191013   -0.395356992755    0.910798526470
 N    1.404876353600    0.966281140759    0.903963366128
 H    2.208703478851    1.586241680514    0.821975343706
 N    2.933407945250   -0.814031714435    0.832451223235
 H    3.587944150582   -0.282228490035    1.400091999965
 H    3.012213032641   -1.814731858370    0.994034561224
 C    0.145602611283    1.652314844290    0.916917152805
 O    0.118022242178    2.880487929067    0.912829024377
 C   -0.927182514693    0.678621455016    0.923118350745
 N   -2.298255816462    0.864952500329    0.923043166029
 C   -2.791779310973   -0.373650513716    0.912713066364
 H   -3.849277224241   -0.627797135548    0.909766421938
 H   -1.931167486721   -2.348644728812    0.898011523539
NA    0.591223051496   -1.327074682675   -5.977048573693
