17

 N   -1.805981838999   -1.341982115376    0.919880074411
 C   -0.595793772155   -0.686775911700    0.923841698379
 N    0.637618642148   -1.285453606162    0.935879983284
 C    1.608041842204   -0.395277464551    0.924007526311
 N    1.404965004791    0.966360668963    0.917172365969
 H    2.208792130042    1.586321208718    0.835184343547
 N    2.933496596441   -0.813952186231    0.845660223076
 H    3.588032801773   -0.282148961831    1.413300999806
 H    3.012301683832   -1.814652330166    1.007243561065
 C    0.145691262474    1.652394372494    0.930126152646
 O    0.118110893369    2.880567457271    0.926038024218
 C   -0.927093863502    0.678700983220    0.936327350586
 N   -2.298167165271    0.865032028533    0.936252165870
 C   -2.791690659782   -0.373570985512    0.925922066205
 H   -3.849188573050   -0.627717607344    0.922975421779
 H   -1.931078835530   -2.348565200608    0.911220523380
NA    0.590640587622   -1.327597205896   -6.063835509463
