17

 N   -1.805893187808   -1.341902587171    0.933089074251
 C   -0.595705120964   -0.686696383495    0.937050698219
 N    0.637707293339   -1.285374077957    0.949088983124
 C    1.608130493395   -0.395197936346    0.937216526151
 N    1.405053655982    0.966440197168    0.930381365809
 H    2.208880781233    1.586400736923    0.848393343387
 N    2.933585247632   -0.813872658026    0.858869222916
 H    3.588121452964   -0.282069433626    1.426509999646
 H    3.012390335023   -1.814572801961    1.020452560905
 C    0.145779913665    1.652473900699    0.943335152486
 O    0.118199544560    2.880646985476    0.939247024058
 C   -0.927005212311    0.678780511425    0.949536350426
 N   -2.298078514080    0.865111556738    0.949461165710
 C   -2.791602008591   -0.373491457307    0.939131066045
 H   -3.849099921859   -0.627638079139    0.936184421619
 H   -1.930990184339   -2.348485672403    0.924429523220
NA    0.590058123748   -1.328119729117   -6.150622445233
