17

 N   -1.805804536617   -1.341823058967    0.946298074092
 C   -0.595616469773   -0.686616855291    0.950259698060
 N    0.637795944530   -1.285294549753    0.962297982965
 C    1.608219144586   -0.395118408142    0.950425525992
 N    1.405142307173    0.966519725372    0.943590365650
 H    2.208969432424    1.586480265127    0.861602343228
 N    2.933673898823   -0.813793129822    0.872078222757
 H    3.588210104155   -0.281989905422    1.439718999487
 H    3.012478986214   -1.814493273757    1.033661560746
 C    0.145868564856    1.652553428903    0.956544152327
 O    0.118288195751    2.880726513680    0.952456023899
 C   -0.926916561120    0.678860039629    0.962745350267
 N   -2.297989862889    0.865191084942    0.962670165551
 C   -2.791513357400   -0.373411929103    0.952340065886
 H   -3.849011270668   -0.627558550935    0.949393421460
 H   -1.930901533148   -2.348406144199    0.937638523061
NA    0.589475659875   -1.328642252338   -6.237409381003
