17

 N   -1.805538583044   -1.341584474355    0.985925073615
 C   -0.595350516200   -0.686378270679    0.989886697583
 N    0.638061898103   -1.285055965141    1.001924982488
 C    1.608485098159   -0.394879823530    0.990052525515
 N    1.405408260746    0.966758309984    0.983217365173
 H    2.209235385997    1.586718849739    0.901229342751
 N    2.933939852396   -0.813554545210    0.911705222280
 H    3.588476057728   -0.281751320810    1.479345999010
 H    3.012744939787   -1.814254689145    1.073288560269
 C    0.146134518429    1.652792013515    0.996171151850
 O    0.118554149324    2.880965098292    0.992083023422
 C   -0.926650607547    0.679098624241    1.002372349790
 N   -2.297723909316    0.865429669554    1.002297165074
 C   -2.791247403827   -0.373173344491    0.991967065409
 H   -3.848745317095   -0.627319966323    0.989020420983
 H   -1.930635579575   -2.348167559587    0.977265522584
NA    0.587728268254   -1.330209822000   -6.497770188312
