17

 N   -1.804652071135   -1.340789192314    1.118015072023
 C   -0.594464004291   -0.685582988638    1.121976695991
 N    0.638948410012   -1.284260683100    1.134014980896
 C    1.609371610068   -0.394084541489    1.122142523923
 N    1.406294772655    0.967553592025    1.115307363581
 H    2.210121897906    1.587514131780    1.033319341159
 N    2.934826364305   -0.812759263169    1.043795220688
 H    3.589362569637   -0.280956038769    1.611435997418
 H    3.013631451696   -1.813459407104    1.205378558677
 C    0.147021030338    1.653587295556    1.128261150258
 O    0.119440661233    2.881760380333    1.124173021830
 C   -0.925764095638    0.679893906282    1.134462348198
 N   -2.296837397407    0.866224951595    1.134387163482
 C   -2.790360891918   -0.372378062450    1.124057063817
 H   -3.847858805186   -0.626524684282    1.121110419391
 H   -1.929749067666   -2.347372277546    1.109355520992
NA    0.581903629517   -1.335435054207   -7.365639546011
