17

 N   -1.804297466371   -1.340471079498    1.170851071386
 C   -0.594109399527   -0.685264875822    1.174812695354
 N    0.639303014776   -1.283942570284    1.186850980259
 C    1.609726214832   -0.393766428673    1.174978523286
 N    1.406649377419    0.967871704841    1.168143362944
 H    2.210476502670    1.587832244596    1.086155340522
 N    2.935180969069   -0.812441150353    1.096631220051
 H    3.589717174401   -0.280637925953    1.664271996781
 H    3.013986056460   -1.813141294288    1.258214558040
 C    0.147375635102    1.653905408372    1.181097149621
 O    0.119795265997    2.882078493149    1.177009021193
 C   -0.925409490874    0.680212019098    1.187298347561
 N   -2.296482792643    0.866543064411    1.187223162845
 C   -2.790006287154   -0.372059949634    1.176893063180
 H   -3.847504200422   -0.626206571466    1.173946418754
 H   -1.929394462902   -2.347054164730    1.162191520355
NA    0.579573774022   -1.337525147090   -7.712787289090
