17

 N   -1.803942861607   -1.340152966682    1.223687070749
 C   -0.593754794763   -0.684946763006    1.227648694717
 N    0.639657619540   -1.283624457468    1.239686979622
 C    1.610080819596   -0.393448315857    1.227814522649
 N    1.407003982183    0.968189817657    1.220979362307
 H    2.210831107434    1.588150357412    1.138991339885
 N    2.935535573833   -0.812123037537    1.149467219414
 H    3.590071779165   -0.280319813137    1.717107996144
 H    3.014340661224   -1.812823181472    1.311050557403
 C    0.147730239866    1.654223521188    1.233933148984
 O    0.120149870761    2.882396605965    1.229845020556
 C   -0.925054886110    0.680530131914    1.240134346924
 N   -2.296128187879    0.866861177227    1.240059162208
 C   -2.789651682390   -0.371741836818    1.229729062543
 H   -3.847149595658   -0.625888458650    1.226782418117
 H   -1.929039858138   -2.346736051914    1.215027519718
NA    0.577243918527   -1.339615239972   -8.059935032169
