17

 N   -1.803854210416   -1.340073438478    1.236896070590
 C   -0.593666143572   -0.684867234802    1.240857694558
 N    0.639746270731   -1.283544929264    1.252895979463
 C    1.610169470787   -0.393368787653    1.241023522490
 N    1.407092633374    0.968269345861    1.234188362148
 H    2.210919758625    1.588229885616    1.152200339726
 N    2.935624225024   -0.812043509333    1.162676219255
 H    3.590160430356   -0.280240284933    1.730316995985
 H    3.014429312415   -1.812743653268    1.324259557244
 C    0.147818891057    1.654303049392    1.247142148825
 O    0.120238521952    2.882476134169    1.243054020397
 C   -0.924966234919    0.680609660118    1.253343346765
 N   -2.296039536688    0.866940705431    1.253268162049
 C   -2.789563031199   -0.371662308614    1.242938062384
 H   -3.847060944467   -0.625808930446    1.239991417958
 H   -1.928951206947   -2.346656523710    1.228236519559
NA    0.576661454653   -1.340137763193   -8.146721967939
