17

 N   -1.803765559225   -1.339993910274    1.250105070431
 C   -0.593577492381   -0.684787706598    1.254066694399
 N    0.639834921922   -1.283465401060    1.266104979304
 C    1.610258121978   -0.393289259449    1.254232522331
 N    1.407181284565    0.968348874065    1.247397361989
 H    2.211008409816    1.588309413820    1.165409339567
 N    2.935712876215   -0.811963981129    1.175885219096
 H    3.590249081547   -0.280160756729    1.743525995826
 H    3.014517963606   -1.812664125064    1.337468557085
 C    0.147907542248    1.654382577596    1.260351148666
 O    0.120327173143    2.882555662373    1.256263020238
 C   -0.924877583728    0.680689188322    1.266552346606
 N   -2.295950885497    0.867020233635    1.266477161890
 C   -2.789474380008   -0.371582780410    1.256147062225
 H   -3.846972293276   -0.625729402242    1.253200417799
 H   -1.928862555756   -2.346576995506    1.241445519400
NA    0.576078990780   -1.340660286414   -8.233508903709
