17

 N   -1.803676908034   -1.339914382070    1.263314070272
 C   -0.593488841190   -0.684708178394    1.267275694240
 N    0.639923573113   -1.283385872856    1.279313979145
 C    1.610346773169   -0.393209731245    1.267441522172
 N    1.407269935756    0.968428402269    1.260606361830
 H    2.211097061007    1.588388942024    1.178618339408
 N    2.935801527406   -0.811884452925    1.189094218937
 H    3.590337732738   -0.280081228525    1.756734995667
 H    3.014606614797   -1.812584596860    1.350677556926
 C    0.147996193439    1.654462105800    1.273560148507
 O    0.120415824334    2.882635190577    1.269472020079
 C   -0.924788932537    0.680768716526    1.279761346447
 N   -2.295862234306    0.867099761839    1.279686161731
 C   -2.789385728817   -0.371503252206    1.269356062066
 H   -3.846883642085   -0.625649874038    1.266409417640
 H   -1.928773904565   -2.346497467302    1.254654519241
NA    0.575496526906   -1.341182809634   -8.320295839479
