17

 N   -1.803588256843   -1.339834853865    1.276523070112
 C   -0.593400189999   -0.684628650189    1.280484694080
 N    0.640012224304   -1.283306344651    1.292522978985
 C    1.610435424360   -0.393130203040    1.280650522012
 N    1.407358586947    0.968507930474    1.273815361670
 H    2.211185712198    1.588468470229    1.191827339248
 N    2.935890178597   -0.811804924720    1.202303218777
 H    3.590426383929   -0.280001700320    1.769943995507
 H    3.014695265988   -1.812505068655    1.363886556766
 C    0.148084844630    1.654541634005    1.286769148347
 O    0.120504475525    2.882714718782    1.282681019919
 C   -0.924700281346    0.680848244731    1.292970346287
 N   -2.295773583115    0.867179290044    1.292895161571
 C   -2.789297077626   -0.371423724001    1.282565061906
 H   -3.846794990894   -0.625570345833    1.279618417480
 H   -1.928685253374   -2.346417939097    1.267863519081
NA    0.574914063032   -1.341705332855   -8.407082775249
