17

 N   -1.803499605652   -1.339755325661    1.289732069953
 C   -0.593311538808   -0.684549121985    1.293693693921
 N    0.640100875495   -1.283226816447    1.305731978826
 C    1.610524075551   -0.393050674836    1.293859521853
 N    1.407447238138    0.968587458678    1.287024361511
 H    2.211274363389    1.588547998433    1.205036339089
 N    2.935978829788   -0.811725396516    1.215512218618
 H    3.590515035120   -0.279922172116    1.783152995348
 H    3.014783917179   -1.812425540451    1.377095556607
 C    0.148173495821    1.654621162209    1.299978148188
 O    0.120593126716    2.882794246986    1.295890019760
 C   -0.924611630155    0.680927772935    1.306179346128
 N   -2.295684931924    0.867258818248    1.306104161412
 C   -2.789208426435   -0.371344195797    1.295774061747
 H   -3.846706339703   -0.625490817629    1.292827417321
 H   -1.928596602183   -2.346338410893    1.281072518922
NA    0.574331599158   -1.342227856076   -8.493869711019
