27

 P    1.511040450521   -1.608833461601    0.780370334482
 O    0.225740450521   -1.323553461601    1.559210334482
 O    1.819630450521   -0.777113461601   -0.466549665518
 O    2.801620450521   -1.525963461601    1.844030334482
 O    1.602730450521   -3.230913461601    0.381870334482
 C    4.079870450521   -1.598393461601    1.185790334482
 H    4.547580450521   -0.602213461601    1.181410334482
 H    3.982170450521   -1.941623461601    0.146070334482
 H    4.714000450521   -2.305113461601    1.742700334482
 C    1.252390450521   -4.098263461601    1.476630334482
 H    0.289380450521   -4.584913461601    1.258430334482
 H    1.176640450521   -3.543643461601    2.422260334482
 H    2.038260450521   -4.862523461601    1.584850334482
RB   -0.515449549479    0.548806538399   -0.266199665518
 P   -1.160901171837    1.236030377878   -0.599539728588
 O   -2.451477282899    1.153165428498   -1.663195214787
 O   -1.252587024934    2.858115881290   -0.201051920920
 O    0.124400156814    0.950753364176   -1.378384777377
 O   -1.469490768061    0.404313175838    0.647379050255
 C   -3.729731041669    1.225600329389   -1.004963740817
 H   -4.197433072098    0.229417690144   -1.000578492859
 H   -3.632022154251    1.568830466936    0.034756699301
 H   -4.363861004159    1.932321915630   -1.561866244503
 C   -0.902250201687    3.725459142923   -1.295809144087
 H    0.060761554780    4.212104338798   -1.077608550281
 H   -0.826498756728    3.170838504534   -2.241427947020
 H   -1.688109170203    4.489711584250   -1.404032193515
