27

 P    1.559221204932   -1.660132369045    0.805253029261
 O    0.273921204932   -1.374852369045    1.584093029261
 O    1.867811204932   -0.828412369045   -0.441666970739
 O    2.849801204932   -1.577262369045    1.868913029261
 O    1.650911204932   -3.282212369045    0.406753029261
 C    4.128051204932   -1.649692369045    1.210673029261
 H    4.595761204932   -0.653512369045    1.206293029261
 H    4.030351204932   -1.992922369045    0.170953029261
 H    4.762181204932   -2.356412369045    1.767583029261
 C    1.300571204932   -4.149562369045    1.501513029261
 H    0.337561204932   -4.636212369045    1.283313029261
 H    1.224821204932   -3.594942369045    2.447143029261
 H    2.086441204932   -4.913822369045    1.609733029261
RB   -0.467268795068    0.497507630955   -0.241316970739
 P   -1.241810741898    1.322176238329   -0.641325046423
 O   -2.532386852960    1.239311288950   -1.704980532622
 O   -1.333496594995    2.944261741742   -0.242837238755
 O    0.043490586752    1.036899224628   -1.420170095212
 O   -1.550400338122    0.490459036289    0.605593732421
 C   -3.810640611730    1.311746189840   -1.046749058651
 H   -4.278342642159    0.315563550596   -1.042363810694
 H   -3.712931724312    1.654976327387   -0.007028618533
 H   -4.444770574220    2.018467776082   -1.603651562338
 C   -0.983159771748    3.811605003374   -1.337594461922
 H   -0.020148015281    4.298250199250   -1.119393868116
 H   -0.907408326789    3.256984364986   -2.283213264855
 H   -1.769018740265    4.575857444702   -1.445817511350
