27

 P    1.631492336547   -1.737080730211    0.842577071430
 O    0.346192336547   -1.451800730211    1.621417071430
 O    1.940082336547   -0.905360730211   -0.404342928570
 O    2.922072336547   -1.654210730211    1.906237071430
 O    1.723182336547   -3.359160730211    0.444077071430
 C    4.200322336547   -1.726640730211    1.247997071430
 H    4.668032336547   -0.730460730211    1.243617071430
 H    4.102622336547   -2.069870730211    0.208277071430
 H    4.834452336547   -2.433360730211    1.804907071430
 C    1.372842336547   -4.226510730211    1.538837071430
 H    0.409832336547   -4.713160730211    1.320637071430
 H    1.297092336547   -3.671890730211    2.484467071430
 H    2.158712336547   -4.990770730211    1.647057071430
RB   -0.394997663453    0.420559269789   -0.203992928570
 P   -1.363175096990    1.451395029007   -0.704003023175
 O   -2.653751208052    1.368530079628   -1.767658509374
 O   -1.454860950087    3.073480532419   -0.305515215507
 O   -0.077873768339    1.166118015305   -1.482848071964
 O   -1.671764693213    0.619677826967    0.542915755668
 C   -3.932004966821    1.440964980518   -1.109427035404
 H   -4.399706997251    0.444782341273   -1.105041787446
 H   -3.834296079404    1.784195118065   -0.069706595286
 H   -4.566134929312    2.147686566759   -1.666329539090
 C   -1.104524126840    3.940823794052   -1.400272438674
 H   -0.141512370373    4.427468989927   -1.182071844868
 H   -1.028772681881    3.386203155663   -2.345891241607
 H   -1.890383095356    4.705076235379   -1.508495488102
