27

 P    1.727853845368   -1.839678545099    0.892342460989
 O    0.442553845368   -1.554398545099    1.671182460989
 O    2.036443845368   -1.007958545099   -0.354577539011
 O    3.018433845368   -1.756808545099    1.956002460989
 O    1.819543845368   -3.461758545099    0.493842460989
 C    4.296683845368   -1.829238545099    1.297762460989
 H    4.764393845368   -0.833058545099    1.293382460989
 H    4.198983845368   -2.172468545099    0.258042460989
 H    4.930813845368   -2.535958545099    1.854672460989
 C    1.469203845368   -4.329108545099    1.588602460989
 H    0.506193845368   -4.815758545099    1.370402460989
 H    1.393453845368   -3.774488545099    2.534232460989
 H    2.255073845368   -5.093368545099    1.696822460989
RB   -0.298636154632    0.317961454901   -0.154227539011
 P   -1.524994237112    1.623686749910   -0.787573658845
 O   -2.815570348174    1.540821800531   -1.851229145043
 O   -1.616680090209    3.245772253323   -0.389085851176
 O   -0.239692908462    1.338409736208   -1.566418707633
 O   -1.833583833336    0.791969547870    0.459345119999
 C   -4.093824106944    1.613256701421   -1.192997671073
 H   -4.561526137373    0.617074062176   -1.188612423115
 H   -3.996115219526    1.956486838968   -0.153277230955
 H   -4.727954069434    2.319978287663   -1.749900174759
 C   -1.266343266962    4.113115514955   -1.483843074344
 H   -0.303331510495    4.599760710831   -1.265642480537
 H   -1.190591822003    3.558494876567   -2.429461877276
 H   -2.052202235478    4.877367956283   -1.592066123771
