27

 P    3.679174398994   -3.917284296583    1.900091599553
 O    2.393874398994   -3.632004296583    2.678931599553
 O    3.987764398994   -3.085564296583    0.653171599553
 O    4.969754398994   -3.834414296583    2.963751599553
 O    3.770864398994   -5.539364296583    1.501591599553
 C    6.248004398994   -3.906844296583    2.305511599553
 H    6.715714398994   -2.910664296583    2.301131599553
 H    6.150304398994   -4.250074296583    1.265791599553
 H    6.882134398994   -4.613564296583    2.862421599553
 C    3.420524398994   -6.406714296583    2.596351599553
 H    2.457514398994   -6.893364296583    2.378151599553
 H    3.344774398994   -5.852094296583    3.541981599553
 H    4.206394398994   -7.170974296583    2.704571599553
RB    1.652684398994   -1.759644296583    0.853521599553
 P   -4.801831824587    5.112594098202   -2.479879031150
 O   -6.092407935649    5.029729148823   -3.543534517349
 O   -4.893517677685    6.734679601615   -2.081391223482
 O   -3.516530495937    4.827317084500   -3.258724079939
 O   -5.110421420811    4.280876896162   -1.232960252307
 C   -7.370661694419    5.102164049713   -2.885303043379
 H   -7.838363724848    4.105981410468   -2.880917795421
 H   -7.272952807001    5.445394187260   -1.845582603261
 H   -8.004791656909    5.808885635955   -3.442205547065
 C   -4.543180854437    7.602022863247   -3.176148446649
 H   -3.580169097970    8.088668059122   -2.957947852843
 H   -4.467429409479    7.047402224858   -4.121767249582
 H   -5.329039822954    8.366275304575   -3.284371496077
