27

 P    1.800124976984   -1.916626906265    0.929666503158
 O    0.514824976984   -1.631346906265    1.708506503158
 O    2.108714976984   -1.084906906265   -0.317253496842
 O    3.090704976984   -1.833756906265    1.993326503158
 O    1.891814976984   -3.538706906265    0.531166503158
 C    4.368954976984   -1.906186906265    1.335086503158
 H    4.836664976984   -0.910006906265    1.330706503158
 H    4.271254976984   -2.249416906265    0.295366503158
 H    5.003084976984   -2.612906906265    1.891996503158
 C    1.541474976984   -4.406056906265    1.625926503158
 H    0.578464976984   -4.892706906265    1.407726503158
 H    1.465724976984   -3.851436906265    2.571556503158
 H    2.327344976984   -5.170316906265    1.734146503158
RB   -0.226365023016    0.241013093735   -0.116903496842
 P   -1.646358592204    1.752905540588   -0.850251635597
 O   -2.936934703266    1.670040591208   -1.913907121795
 O   -1.738044445301    3.374991044000   -0.451763827928
 O   -0.361057263553    1.467628526886   -1.629096684385
 O   -1.954948188427    0.921188338547    0.396667143247
 C   -4.215188462035    1.742475492099   -1.255675647825
 H   -4.682890492464    0.746292852854   -1.251290399867
 H   -4.117479574618    2.085705629646   -0.215955207707
 H   -4.849318424526    2.449197078340   -1.812578151512
 C   -1.387707622054    4.242334305633   -1.546521051096
 H   -0.424695865587    4.728979501508   -1.328320457289
 H   -1.311956177095    3.687713667244   -2.492139854028
 H   -2.173566590570    5.006586746960   -1.654744100523
