27

 P    2.137390257858   -2.275719258373    1.103845366613
 O    0.852090257858   -1.990439258373    1.882685366613
 O    2.445980257858   -1.443999258373   -0.143074633387
 O    3.427970257858   -2.192849258373    2.167505366613
 O    2.229080257858   -3.897799258373    0.705345366613
 C    4.706220257858   -2.265279258373    1.509265366613
 H    5.173930257858   -1.269099258373    1.504885366613
 H    4.608520257858   -2.608509258373    0.469545366613
 H    5.340350257858   -2.971999258373    2.066175366613
 C    1.878740257858   -4.765149258373    1.800105366613
 H    0.915730257858   -5.251799258373    1.581905366613
 H    1.802990257858   -4.210529258373    2.745735366613
 H    2.664610257858   -5.529409258373    1.908325366613
RB    0.110900257858   -0.118079258373    0.057275366613
 P   -2.212725582632    2.355926563749   -1.142748860440
 O   -3.503301693694    2.273061614370   -2.206404346638
 O   -2.304411435729    3.978012067162   -0.744261052771
 O   -0.927424253981    2.070649550047   -1.921593909228
 O   -2.521315178855    1.524209361709    0.104169918404
 C   -4.781555452463    2.345496515260   -1.548172872668
 H   -5.249257482892    1.349313876015   -1.543787624710
 H   -4.683846565046    2.688726652807   -0.508452432550
 H   -5.415685414953    3.052218101502   -2.105075376355
 C   -1.954074612482    4.845355328794   -1.839018275939
 H   -0.991062856014    5.332000524670   -1.620817682132
 H   -1.878323167523    4.290734690406   -2.784637078871
 H   -2.739933580998    5.609607770122   -1.947241325366
