27

 P    2.185571012268   -2.327018165817    1.128728061393
 O    0.900271012268   -2.041738165817    1.907568061393
 O    2.494161012268   -1.495298165817   -0.118191938607
 O    3.476151012268   -2.244148165817    2.192388061393
 O    2.277261012268   -3.949098165817    0.730228061393
 C    4.754401012268   -2.316578165817    1.534148061393
 H    5.222111012268   -1.320398165817    1.529768061393
 H    4.656701012268   -2.659808165817    0.494428061393
 H    5.388531012268   -3.023298165817    2.091058061393
 C    1.926921012268   -4.816448165817    1.824988061393
 H    0.963911012268   -5.303098165817    1.606788061393
 H    1.851171012268   -4.261828165817    2.770618061393
 H    2.712791012268   -5.580708165817    1.933208061393
RB    0.159081012268   -0.169378165817    0.082158061393
 P   -2.293635152693    2.442072424201   -1.184534178274
 O   -3.584211263755    2.359207474822   -2.248189664473
 O   -2.385321005790    4.064157927613   -0.786046370606
 O   -1.008333824042    2.156795410499   -1.963379227063
 O   -2.602224748916    1.610355222161    0.062384600569
 C   -4.862465022524    2.431642375712   -1.589958190503
 H   -5.330167052953    1.435459736467   -1.585572942545
 H   -4.764756135107    2.774872513259   -0.550237750385
 H   -5.496594985014    3.138363961953   -2.146860694189
 C   -2.034984182543    4.931501189246   -1.880803593773
 H   -1.071972426075    5.418146385121   -1.662602999967
 H   -1.959232737584    4.376880550857   -2.826422396706
 H   -2.820843151059    5.695753630573   -1.989026643201
