27

 P    2.209661389473   -2.352667619540    1.141169408782
 O    0.924361389473   -2.067387619540    1.920009408782
 O    2.518251389473   -1.520947619540   -0.105750591218
 O    3.500241389473   -2.269797619540    2.204829408782
 O    2.301351389473   -3.974747619540    0.742669408782
 C    4.778491389473   -2.342227619540    1.546589408782
 H    5.246201389473   -1.346047619540    1.542209408782
 H    4.680791389473   -2.685457619540    0.506869408782
 H    5.412621389473   -3.048947619540    2.103499408782
 C    1.951011389473   -4.842097619540    1.837429408782
 H    0.988001389473   -5.328747619540    1.619229408782
 H    1.875261389473   -4.287477619540    2.783059408782
 H    2.736881389473   -5.606357619540    1.945649408782
RB    0.183171389473   -0.195027619540    0.094599408782
 P   -2.334089937723    2.485145354427   -1.205426837192
 O   -3.624666048785    2.402280405047   -2.269082323390
 O   -2.425775790821    4.107230857839   -0.806939029523
 O   -1.048788609073    2.199868340725   -1.984271885980
 O   -2.642679533947    1.653428152386    0.041491941652
 C   -4.902919807555    2.474715305938   -1.610850849420
 H   -5.370621837984    1.478532666693   -1.606465601462
 H   -4.805210920137    2.817945443485   -0.571130409302
 H   -5.537049770045    3.181436892179   -2.167753353107
 C   -2.075438967573    4.974574119472   -1.901696252691
 H   -1.112427211106    5.461219315347   -1.683495658884
 H   -1.999687522615    4.419953481083   -2.847315055624
 H   -2.861297936090    5.738826560799   -2.009919302118
