27

 P    2.281932521089   -2.429615980706    1.178493450951
 O    0.996632521089   -2.144335980706    1.957333450951
 O    2.590522521089   -1.597895980706   -0.068426549049
 O    3.572512521089   -2.346745980706    2.242153450951
 O    2.373622521089   -4.051695980706    0.779993450951
 C    4.850762521089   -2.419175980706    1.583913450951
 H    5.318472521089   -1.422995980706    1.579533450951
 H    4.753062521089   -2.762405980706    0.544193450951
 H    5.484892521089   -3.125895980706    2.140823450951
 C    2.023282521089   -4.919045980706    1.874753450951
 H    1.060272521089   -5.405695980706    1.656553450951
 H    1.947532521089   -4.364425980706    2.820383450951
 H    2.809152521089   -5.683305980706    1.982973450951
RB    0.255442521089   -0.271975980706    0.131923450951
 P   -2.455454292815    2.614364145104   -1.268104813944
 O   -3.746030403877    2.531499195725   -2.331760300142
 O   -2.547140145912    4.236449648517   -0.869617006275
 O   -1.170152964164    2.329087131402   -2.046949862732
 O   -2.764043889039    1.782646943064   -0.021186035100
 C   -5.024284162646    2.603934096615   -1.673528826172
 H   -5.491986193076    1.607751457370   -1.669143578214
 H   -4.926575275229    2.947164234162   -0.633808386054
 H   -5.658414125137    3.310655682857   -2.230431329859
 C   -2.196803322665    5.103792910149   -1.964374229443
 H   -1.233791566198    5.590438106025   -1.746173635636
 H   -2.121051877706    4.549172271761   -2.909993032376
 H   -2.982662291181    5.868045351477   -2.072597278870
