27

 P    2.306022898294   -2.455265434428    1.190934798341
 O    1.020722898294   -2.169985434428    1.969774798341
 O    2.614612898294   -1.623545434428   -0.055985201659
 O    3.596602898294   -2.372395434428    2.254594798341
 O    2.397712898294   -4.077345434428    0.792434798341
 C    4.874852898294   -2.444825434428    1.596354798341
 H    5.342562898294   -1.448645434428    1.591974798341
 H    4.777152898294   -2.788055434428    0.556634798341
 H    5.508982898294   -3.151545434428    2.153264798341
 C    2.047372898294   -4.944695434428    1.887194798341
 H    1.084362898294   -5.431345434428    1.668994798341
 H    1.971622898294   -4.390075434428    2.832824798341
 H    2.833242898294   -5.708955434428    1.995414798341
RB    0.279532898294   -0.297625434428    0.144364798341
 P   -2.495909077845    2.657437075330   -1.288997472861
 O   -3.786485188908    2.574572125951   -2.352652959060
 O   -2.587594930943    4.279522578742   -0.890509665193
 O   -1.210607749195    2.372160061628   -2.067842521650
 O   -2.804498674069    1.825719873290   -0.042078694017
 C   -5.064738947677    2.647007026841   -1.694421485089
 H   -5.532440978106    1.650824387596   -1.690036237132
 H   -4.967030060260    2.990237164388   -0.654701044971
 H   -5.698868910167    3.353728613083   -2.251323988776
 C   -2.237258107695    5.146865840375   -1.985266888360
 H   -1.274246351228    5.633511036250   -1.767066294554
 H   -2.161506662737    4.592245201986   -2.930885691293
 H   -3.023117076212    5.911118281703   -2.093489937788
