27

 P    2.330113275500   -2.480914888150    1.203376145731
 O    1.044813275500   -2.195634888150    1.982216145731
 O    2.638703275500   -1.649194888150   -0.043543854269
 O    3.620693275500   -2.398044888150    2.267036145731
 O    2.421803275500   -4.102994888150    0.804876145731
 C    4.898943275500   -2.470474888150    1.608796145731
 H    5.366653275500   -1.474294888150    1.604416145731
 H    4.801243275500   -2.813704888150    0.569076145731
 H    5.533073275500   -3.177194888150    2.165706145731
 C    2.071463275500   -4.970344888150    1.899636145731
 H    1.108453275500   -5.456994888150    1.681436145731
 H    1.995713275500   -4.415724888150    2.845266145731
 H    2.857333275500   -5.734604888150    2.007856145731
RB    0.303623275500   -0.323274888150    0.156806145731
 P   -2.536363862876    2.700510005556   -1.309890131779
 O   -3.826939973938    2.617645056176   -2.373545617977
 O   -2.628049715973    4.322595508968   -0.911402324110
 O   -1.251062534225    2.415232991854   -2.088735180567
 O   -2.844953459100    1.868792803516   -0.062971352935
 C   -5.105193732707    2.690079957067   -1.715314144007
 H   -5.572895763137    1.693897317822   -1.710928896049
 H   -5.007484845290    3.033310094614   -0.675593703889
 H   -5.739323695198    3.396801543308   -2.272216647693
 C   -2.277712892726    5.189938770601   -2.006159547277
 H   -1.314701136259    5.676583966476   -1.787958953471
 H   -2.201961447767    4.635318132212   -2.951778350210
 H   -3.063571861242    5.954191211928   -2.114382596705
