27

 P    2.402384407115   -2.557863249316    1.240700187900
 O    1.117084407115   -2.272583249316    2.019540187900
 O    2.710974407115   -1.726143249316   -0.006219812100
 O    3.692964407115   -2.474993249316    2.304360187900
 O    2.494074407115   -4.179943249316    0.842200187900
 C    4.971214407115   -2.547423249316    1.646120187900
 H    5.438924407115   -1.551243249316    1.641740187900
 H    4.873514407115   -2.890653249316    0.606400187900
 H    5.605344407115   -3.254143249316    2.203030187900
 C    2.143734407115   -5.047293249316    1.936960187900
 H    1.180724407115   -5.533943249316    1.718760187900
 H    2.067984407115   -4.492673249316    2.882590187900
 H    2.929604407115   -5.811553249316    2.045180187900
RB    0.375894407115   -0.400223249316    0.194130187900
 P   -2.657728217968    2.829728796233   -1.372568108531
 O   -3.948304329030    2.746863846854   -2.436223594729
 O   -2.749414071065    4.451814299646   -0.974080300862
 O   -1.372426889317    2.544451782532   -2.151413157319
 O   -2.966317814191    1.998011594193   -0.125649329687
 C   -5.226558087799    2.819298747744   -1.777992120759
 H   -5.694260118228    1.823116108500   -1.773606872801
 H   -5.128849200382    3.162528885291   -0.738271680641
 H   -5.860688050289    3.526020333986   -2.334894624445
 C   -2.399077247818    5.319157561278   -2.068837524030
 H   -1.436065491350    5.805802757154   -1.850636930223
 H   -2.323325802859    4.764536922890   -3.014456326962
 H   -3.184936216334    6.083410002606   -2.177060573457
