27

 P    2.426474784321   -2.583512703038    1.253141535289
 O    1.141174784321   -2.298232703038    2.031981535289
 O    2.735064784321   -1.751792703038    0.006221535289
 O    3.717054784321   -2.500642703038    2.316801535289
 O    2.518164784321   -4.205592703038    0.854641535289
 C    4.995304784321   -2.573072703038    1.658561535289
 H    5.463014784321   -1.576892703038    1.654181535289
 H    4.897604784321   -2.916302703038    0.618841535289
 H    5.629434784321   -3.279792703038    2.215471535289
 C    2.167824784321   -5.072942703038    1.949401535289
 H    1.204814784321   -5.559592703038    1.731201535289
 H    2.092074784321   -4.518322703038    2.895031535289
 H    2.953694784321   -5.837202703038    2.057621535289
RB    0.399984784321   -0.425872703038    0.206571535289
 P   -2.698183002998    2.872801726459   -1.393460767448
 O   -3.988759114060    2.789936777080   -2.457116253646
 O   -2.789868856096    4.494887229872   -0.994972959779
 O   -1.412881674348    2.587524712757   -2.172305816237
 O   -3.006772599222    2.041084524419   -0.146541988604
 C   -5.267012872830    2.862371677970   -1.798884779676
 H   -5.734714903259    1.866189038725   -1.794499531718
 H   -5.169303985412    3.205601815517   -0.759164339558
 H   -5.901142835320    3.569093264212   -2.355787283363
 C   -2.439532032848    5.362230491504   -2.089730182947
 H   -1.476520276381    5.848875687379   -1.871529589141
 H   -2.363780587890    4.807609853116   -3.035348985880
 H   -3.225391001365    6.126482932832   -2.197953232374
