27

 P    2.450565161526   -2.609162156760    1.265582882679
 O    1.165265161526   -2.323882156760    2.044422882679
 O    2.759155161526   -1.777442156760    0.018662882679
 O    3.741145161526   -2.526292156760    2.329242882679
 O    2.542255161526   -4.231242156760    0.867082882679
 C    5.019395161526   -2.598722156760    1.671002882679
 H    5.487105161526   -1.602542156760    1.666622882679
 H    4.921695161526   -2.941952156760    0.631282882679
 H    5.653525161526   -3.305442156760    2.227912882679
 C    2.191915161526   -5.098592156760    1.961842882679
 H    1.228905161526   -5.585242156760    1.743642882679
 H    2.116165161526   -4.543972156760    2.907472882679
 H    2.977785161526   -5.862852156760    2.070062882679
RB    0.424075161526   -0.451522156760    0.219012882679
 P   -2.738637788029    2.915874656685   -1.414353426365
 O   -4.029213899091    2.833009707306   -2.478008912564
 O   -2.830323641126    4.537960160097   -1.015865618697
 O   -1.453336459378    2.630597642983   -2.193198475154
 O   -3.047227384252    2.084157454645   -0.167434647522
 C   -5.307467657860    2.905444608196   -1.819777438594
 H   -5.775169688290    1.909261968951   -1.815392190636
 H   -5.209758770443    3.248674745743   -0.780056998476
 H   -5.941597620351    3.612166194437   -2.376679942280
 C   -2.479986817879    5.405303421730   -2.110622841864
 H   -1.516975061412    5.891948617605   -1.892422248058
 H   -2.404235372920    4.850682783341   -3.056241644797
 H   -3.265845786395    6.169555863057   -2.218845891292
