27

 P    2.474655538731   -2.634811610482    1.278024230069
 O    1.189355538731   -2.349531610482    2.056864230069
 O    2.783245538731   -1.803091610482    0.031104230069
 O    3.765235538731   -2.551941610482    2.341684230069
 O    2.566345538731   -4.256891610482    0.879524230069
 C    5.043485538731   -2.624371610482    1.683444230069
 H    5.511195538731   -1.628191610482    1.679064230069
 H    4.945785538731   -2.967601610482    0.643724230069
 H    5.677615538731   -3.331091610482    2.240354230069
 C    2.216005538731   -5.124241610482    1.974284230069
 H    1.252995538731   -5.610891610482    1.756084230069
 H    2.140255538731   -4.569621610482    2.919914230069
 H    3.001875538731   -5.888501610482    2.082504230069
RB    0.448165538731   -0.477171610482    0.231454230069
 P   -2.779092573059    2.958947586911   -1.435246085283
 O   -4.069668684121    2.876082637531   -2.498901571481
 O   -2.870778426157    4.581033090323   -1.036758277614
 O   -1.493791244409    2.673670573209   -2.214091134071
 O   -3.087682169283    2.127230384871   -0.188327306439
 C   -5.347922442891    2.948517538422   -1.840670097511
 H   -5.815624473320    1.952334899177   -1.836284849553
 H   -5.250213555473    3.291747675969   -0.800949657393
 H   -5.982052405381    3.655239124663   -2.397572601197
 C   -2.520441602909    5.448376351956   -2.131515500782
 H   -1.557429846442    5.935021547831   -1.913314906975
 H   -2.444690157951    4.893755713567   -3.077134303714
 H   -3.306300571426    6.212628793283   -2.239738550209
