27

 P    2.619197801963   -2.788708332814    1.352672314407
 O    1.333897801963   -2.503428332814    2.131512314407
 O    2.927787801963   -1.956988332814    0.105752314407
 O    3.909777801963   -2.705838332814    2.416332314407
 O    2.710887801963   -4.410788332814    0.954172314407
 C    5.188027801963   -2.778268332814    1.758092314407
 H    5.655737801963   -1.782088332814    1.753712314407
 H    5.090327801963   -3.121498332814    0.718372314407
 H    5.822157801963   -3.484988332814    2.315002314407
 C    2.360547801963   -5.278138332814    2.048932314407
 H    1.397537801963   -5.764788332814    1.830732314407
 H    2.284797801963   -4.723518332814    2.994562314407
 H    3.146417801963   -6.042398332814    2.157152314407
RB    0.592707801963   -0.631068332814    0.306102314407
 P   -3.021821283243    3.217385168266   -1.560602038787
 O   -4.312397394305    3.134520218886   -2.624257524985
 O   -3.113507136340    4.839470671678   -1.162114231118
 O   -1.736519954592    2.932108154564   -2.339447087575
 O   -3.330410879466    2.385667966226   -0.313683259943
 C   -5.590651153074    3.206955119777   -1.966026051015
 H   -6.058353183503    2.210772480532   -1.961640803057
 H   -5.492942265657    3.550185257324   -0.926305610897
 H   -6.224781115565    3.913676706018   -2.522928554702
 C   -2.763170313093    5.706813933311   -2.256871454286
 H   -1.800158556625    6.193459129186   -2.038670860479
 H   -2.687418868134    5.152193294922   -3.202490257219
 H   -3.549029281609    6.471066374638   -2.365094503713
