27

 P    2.667378556373   -2.840007240258    1.377555009186
 O    1.382078556373   -2.554727240258    2.156395009186
 O    2.975968556373   -2.008287240258    0.130635009186
 O    3.957958556373   -2.757137240258    2.441215009186
 O    2.759068556373   -4.462087240258    0.979055009186
 C    5.236208556373   -2.829567240258    1.782975009186
 H    5.703918556373   -1.833387240258    1.778595009186
 H    5.138508556373   -3.172797240258    0.743255009186
 H    5.870338556373   -3.536287240258    2.339885009186
 C    2.408728556373   -5.329437240258    2.073815009186
 H    1.445718556373   -5.816087240258    1.855615009186
 H    2.332978556373   -4.774817240258    3.019445009186
 H    3.194598556373   -6.093697240258    2.182035009186
RB    0.640888556373   -0.682367240258    0.330985009186
 P   -3.102730853304    3.303531028717   -1.602387356622
 O   -4.393306964366    3.220666079338   -2.666042842820
 O   -3.194416706401    4.925616532130   -1.203899548953
 O   -1.817429524653    3.018254015016   -2.381232405410
 O   -3.411320449527    2.471813826677   -0.355468577778
 C   -5.671560723135    3.293100980228   -2.007811368850
 H   -6.139262753565    2.296918340984   -2.003426120892
 H   -5.573851835718    3.636331117775   -0.968090928732
 H   -6.305690685626    3.999822566470   -2.564713872536
 C   -2.844079883154    5.792959793762   -2.298656772120
 H   -1.881068126687    6.279604989638   -2.080456178314
 H   -2.768328438195    5.238339155374   -3.244275575053
 H   -3.629938851670    6.557212235090   -2.406879821548
