27

 P    2.715559310784   -2.891306147702    1.402437703966
 O    1.430259310784   -2.606026147702    2.181277703966
 O    3.024149310784   -2.059586147702    0.155517703966
 O    4.006139310784   -2.808436147702    2.466097703966
 O    2.807249310784   -4.513386147702    1.003937703966
 C    5.284389310784   -2.880866147702    1.807857703966
 H    5.752099310784   -1.884686147702    1.803477703966
 H    5.186689310784   -3.224096147702    0.768137703966
 H    5.918519310784   -3.587586147702    2.364767703966
 C    2.456909310784   -5.380736147702    2.098697703966
 H    1.493899310784   -5.867386147702    1.880497703966
 H    2.381159310784   -4.826116147702    3.044327703966
 H    3.242779310784   -6.144996147702    2.206917703966
RB    0.689069310784   -0.733666147702    0.355867703966
 P   -3.183640423365    3.389676889169   -1.644172674456
 O   -4.474216534427    3.306811939790   -2.707828160655
 O   -3.275326276462    5.011762392582   -1.245684866788
 O   -1.898339094714    3.104399875467   -2.423017723245
 O   -3.492230019589    2.557959687129   -0.397253895613
 C   -5.752470293196    3.379246840680   -2.049596686685
 H   -6.220172323626    2.383064201435   -2.045211438727
 H   -5.654761405779    3.722476978227   -1.009876246566
 H   -6.386600255687    4.085968426922   -2.606499190371
 C   -2.924989453215    5.879105654214   -2.340442089955
 H   -1.961977696748    6.365750850089   -2.122241496149
 H   -2.849238008256    5.324485015825   -3.286060892888
 H   -3.710848421731    6.643358095542   -2.448665139383
