27

 P    2.836011196810   -3.019553416312    1.464644440914
 O    1.550711196810   -2.734273416312    2.243484440914
 O    3.144601196810   -2.187833416312    0.217724440914
 O    4.126591196810   -2.936683416312    2.528304440914
 O    2.927701196810   -4.641633416312    1.066144440914
 C    5.404841196810   -3.009113416312    1.870064440914
 H    5.872551196810   -2.012933416312    1.865684440914
 H    5.307141196810   -3.352343416312    0.830344440914
 H    6.038971196810   -3.715833416312    2.426974440914
 C    2.577361196810   -5.508983416312    2.160904440914
 H    1.614351196810   -5.995633416312    1.942704440914
 H    2.501611196810   -4.954363416312    3.106534440914
 H    3.363231196810   -6.273243416312    2.269124440914
RB    0.809521196810   -0.861913416312    0.418074440914
 P   -3.385914348518    3.605041540298   -1.748635969043
 O   -4.676490459580    3.522176590919   -2.812291455242
 O   -3.477600201615    5.227127043711   -1.350148161374
 O   -2.100613019867    3.319764526596   -2.527481017832
 O   -3.694503944741    2.773324338258   -0.501717190199
 C   -5.954744218349    3.594611491809   -2.154059981271
 H   -6.422446248778    2.598428852564   -2.149674733313
 H   -5.857035330932    3.937841629356   -1.114339541153
 H   -6.588874180840    4.301333078051   -2.710962484958
 C   -3.127263378368    6.094470305343   -2.444905384542
 H   -2.164251621900    6.581115501218   -2.226704790736
 H   -3.051511933409    5.539849666955   -3.390524187475
 H   -3.913122346884    6.858722746671   -2.553128433969
