27

 P    2.908282328426   -3.096501777478    1.501968483083
 O    1.622982328426   -2.811221777478    2.280808483083
 O    3.216872328426   -2.264781777478    0.255048483083
 O    4.198862328426   -3.013631777478    2.565628483083
 O    2.999972328426   -4.718581777478    1.103468483083
 C    5.477112328426   -3.086061777478    1.907388483083
 H    5.944822328426   -2.089881777478    1.903008483083
 H    5.379412328426   -3.429291777478    0.867668483083
 H    6.111242328426   -3.792781777478    2.464298483083
 C    2.649632328426   -5.585931777478    2.198228483083
 H    1.686622328426   -6.072581777478    1.980028483083
 H    2.573882328426   -5.031311777478    3.143858483083
 H    3.435502328426   -6.350191777478    2.306448483083
RB    0.881792328426   -0.938861777478    0.455398483083
 P   -3.507278703609    3.734260330976   -1.811313945795
 O   -4.797854814671    3.651395381596   -2.874969431994
 O   -3.598964556707    5.356345834388   -1.412826138126
 O   -2.221977374959    3.448983317274   -2.590158994584
 O   -3.815868299833    2.902543128935   -0.564395166951
 C   -6.076108573441    3.723830282487   -2.216737958023
 H   -6.543810603870    2.727647643242   -2.212352710066
 H   -5.978399686023    4.067060420033   -1.177017517905
 H   -6.710238535931    4.430551868728   -2.773640461710
 C   -3.248627733459    6.223689096021   -2.507583361294
 H   -2.285615976992    6.710334291896   -2.289382767488
 H   -3.172876288501    5.669068457632   -3.453202164227
 H   -4.034486701976    6.987941537348   -2.615806410721
