27

 P    3.197366854889   -3.404295222143    1.651264651759
 O    1.912066854889   -3.119015222143    2.430104651759
 O    3.505956854889   -2.572575222143    0.404344651759
 O    4.487946854889   -3.321425222143    2.714924651759
 O    3.289056854889   -5.026375222143    1.252764651759
 C    5.766196854889   -3.393855222143    2.056684651759
 H    6.233906854889   -2.397675222143    2.052304651759
 H    5.668496854889   -3.737085222143    1.016964651759
 H    6.400326854889   -4.100575222143    2.613594651759
 C    2.938716854889   -5.893725222143    2.347524651759
 H    1.975706854889   -6.380375222143    2.129324651759
 H    2.862966854889   -5.339105222143    3.293154651759
 H    3.724586854889   -6.657985222143    2.455744651759
RB    1.170876854889   -1.246655222143    0.604694651759
 P   -3.992736123976    4.251135493685   -2.062025852803
 O   -5.283312235038    4.168270544306   -3.125681339002
 O   -4.084421977073    5.873220997098   -1.663538045135
 O   -2.707434795326    3.965858479984   -2.840870901592
 O   -4.301325720200    3.419418291645   -0.815107073960
 C   -6.561565993808    4.240705445197   -2.467449865032
 H   -7.029268024237    3.244522805952   -2.463064617074
 H   -6.463857106390    4.583935582743   -1.427729424914
 H   -7.195695956298    4.947427031438   -3.024352368718
 C   -3.734085153826    6.740564258731   -2.758295268302
 H   -2.771073397359    7.227209454606   -2.540094674496
 H   -3.658333708867    6.185943620342   -3.703914071235
 H   -4.519944122342    7.504816700058   -2.866518317730
