27

 P    3.245547609299   -3.455594129587    1.676147346538
 O    1.960247609299   -3.170314129587    2.454987346538
 O    3.554137609299   -2.623874129587    0.429227346538
 O    4.536127609299   -3.372724129587    2.739807346538
 O    3.337237609299   -5.077674129587    1.277647346538
 C    5.814377609299   -3.445154129587    2.081567346538
 H    6.282087609299   -2.448974129587    2.077187346538
 H    5.716677609299   -3.788384129587    1.041847346538
 H    6.448507609299   -4.151874129587    2.638477346538
 C    2.986897609299   -5.945024129587    2.372407346538
 H    2.023887609299   -6.431674129587    2.154207346538
 H    2.911147609299   -5.390404129587    3.318037346538
 H    3.772767609299   -6.709284129587    2.480627346538
RB    1.219057609299   -1.297954129587    0.629577346538
 P   -4.073645694037    4.337281354137   -2.103811170638
 O   -5.364221805099    4.254416404758   -3.167466656837
 O   -4.165331547134    5.959366857550   -1.705323362969
 O   -2.788344365387    4.052004340435   -2.882656219427
 O   -4.382235290261    3.505564152097   -0.856892391794
 C   -6.642475563869    4.326851305648   -2.509235182866
 H   -7.110177594298    3.330668666403   -2.504849934908
 H   -6.544766676451    4.670081443195   -1.469514742748
 H   -7.276605526359    5.033572891890   -3.066137686553
 C   -3.814994723887    6.826710119182   -2.800080586137
 H   -2.851982967420    7.313355315058   -2.581879992331
 H   -3.739243278928    6.272089480794   -3.745699389070
 H   -4.600853692404    7.590962560510   -2.908303635564
