27

 P    3.269637986505   -3.481243583309    1.688588693928
 O    1.984337986505   -3.195963583309    2.467428693928
 O    3.578227986505   -2.649523583309    0.441668693928
 O    4.560217986505   -3.398373583309    2.752248693928
 O    3.361327986505   -5.103323583309    1.290088693928
 C    5.838467986505   -3.470803583309    2.094008693928
 H    6.306177986505   -2.474623583309    2.089628693928
 H    5.740767986505   -3.814033583309    1.054288693928
 H    6.472597986505   -4.177523583309    2.650918693928
 C    3.010987986505   -5.970673583309    2.384848693928
 H    2.047977986505   -6.457323583309    2.166648693928
 H    2.935237986505   -5.416053583309    3.330478693928
 H    3.796857986505   -6.734933583309    2.493068693928
RB    1.243147986505   -1.323603583309    0.642018693928
 P   -4.114100479068    4.380354284363   -2.124703829555
 O   -5.404676590130    4.297489334984   -3.188359315754
 O   -4.205786332165    6.002439787775   -1.726216021887
 O   -2.828799150417    4.095077270661   -2.903548878344
 O   -4.422690075291    3.548637082323   -0.877785050712
 C   -6.682930348899    4.369924235874   -2.530127841784
 H   -7.150632379328    3.373741596629   -2.525742593826
 H   -6.585221461482    4.713154373421   -1.490407401666
 H   -7.317060311390    5.076645822116   -3.087030345470
 C   -3.855449508918    6.869783049408   -2.820973245054
 H   -2.892437752451    7.356428245283   -2.602772651248
 H   -3.779698063959    6.315162411019   -3.766592047987
 H   -4.641308477434    7.634035490736   -2.929196294482
