27

 P    3.390089872531   -3.609490851919    1.750795430876
 O    2.104789872531   -3.324210851919    2.529635430876
 O    3.698679872531   -2.777770851919    0.503875430876
 O    4.680669872531   -3.526620851919    2.814455430876
 O    3.481779872531   -5.231570851919    1.352295430876
 C    5.958919872531   -3.599050851919    2.156215430876
 H    6.426629872531   -2.602870851919    2.151835430876
 H    5.861219872531   -3.942280851919    1.116495430876
 H    6.593049872531   -4.305770851919    2.713125430876
 C    3.131439872531   -6.098920851919    2.447055430876
 H    2.168429872531   -6.585570851919    2.228855430876
 H    3.055689872531   -5.544300851919    3.392685430876
 H    3.917309872531   -6.863180851919    2.555275430876
RB    1.363599872531   -1.451850851919    0.704225430876
 P   -4.316374404221    4.595718935492   -2.229167124142
 O   -5.606950515283    4.512853986113   -3.292822610341
 O   -4.408060257318    6.217804438905   -1.830679316474
 O   -3.031073075570    4.310441921790   -3.008012172931
 O   -4.624964000444    3.764001733452   -0.982248345298
 C   -6.885204274052    4.585288887003   -2.634591136370
 H   -7.352906304481    3.589106247758   -2.630205888413
 H   -6.787495386635    4.928519024550   -1.594870696252
 H   -7.519334236542    5.292010473245   -3.191493640057
 C   -4.057723434071    7.085147700537   -2.925436539641
 H   -3.094711677603    7.571792896412   -2.707235945835
 H   -3.981971989112    6.530527062149   -3.871055342574
 H   -4.843582402587    7.849400141865   -3.033659589069
