27

 P    3.558722512968   -3.789037027973    1.837884862604
 O    2.273422512968   -3.503757027973    2.616724862604
 O    3.867312512968   -2.957317027973    0.590964862604
 O    4.849302512968   -3.706167027973    2.901544862604
 O    3.650412512968   -5.411117027973    1.439384862604
 C    6.127552512968   -3.778597027973    2.243304862604
 H    6.595262512968   -2.782417027973    2.238924862604
 H    6.029852512968   -4.121827027973    1.203584862604
 H    6.761682512968   -4.485317027973    2.800214862604
 C    3.300072512968   -6.278467027973    2.534144862604
 H    2.337062512968   -6.765117027973    2.315944862604
 H    3.224322512968   -5.723847027973    3.479774862604
 H    4.085942512968   -7.042727027973    2.642364862604
RB    1.532232512968   -1.631397027973    0.791314862604
 P   -4.599557899434    4.897229447073   -2.375415736564
 O   -5.890134010497    4.814364497694   -3.439071222762
 O   -4.691243752532    6.519314950485   -1.976927928895
 O   -3.314256570784    4.611952433371   -3.154260785352
 O   -4.908147495658    4.065512245033   -1.128496957720
 C   -7.168387769266    4.886799398584   -2.780839748792
 H   -7.636089799695    3.890616759339   -2.776454500834
 H   -7.070678881849    5.230029536131   -1.741119308674
 H   -7.802517731756    5.593520984825   -3.337742252478
 C   -4.340906929284    7.386658212118   -3.071685152063
 H   -3.377895172817    7.873303407993   -2.853484558256
 H   -4.265155484326    6.832037573729   -4.017303954995
 H   -5.126765897801    8.150910653445   -3.179908201490
