27

 P    3.582812890173   -3.814686481695    1.850326209994
 O    2.297512890173   -3.529406481695    2.629166209994
 O    3.891402890173   -2.982966481695    0.603406209994
 O    4.873392890173   -3.731816481695    2.913986209994
 O    3.674502890173   -5.436766481695    1.451826209994
 C    6.151642890173   -3.804246481695    2.255746209994
 H    6.619352890173   -2.808066481695    2.251366209994
 H    6.053942890173   -4.147476481695    1.216026209994
 H    6.785772890173   -4.510966481695    2.812656209994
 C    3.324162890173   -6.304116481695    2.546586209994
 H    2.361152890173   -6.790766481695    2.328386209994
 H    3.248412890173   -5.749496481695    3.492216209994
 H    4.110032890173   -7.068376481695    2.654806209994
RB    1.556322890173   -1.657046481695    0.803756209994
 P   -4.640012684465    4.940302377299   -2.396308395481
 O   -5.930588795527    4.857437427919   -3.459963881680
 O   -4.731698537562    6.562387880711   -1.997820587812
 O   -3.354711355814    4.655025363597   -3.175153444270
 O   -4.948602280689    4.108585175259   -1.149389616637
 C   -7.208842554296    4.929872328810   -2.801732407709
 H   -7.676544584726    3.933689689565   -2.797347159751
 H   -7.111133666879    5.273102466357   -1.762011967591
 H   -7.842972516787    5.636593915051   -3.358634911396
 C   -4.381361714315    7.429731142344   -3.092577810980
 H   -3.418349957848    7.916376338219   -2.874377217174
 H   -4.305610269356    6.875110503955   -4.038196613913
 H   -5.167220682831    8.193983583671   -3.200800860407
