27

 P    3.606903267378   -3.840335935417    1.862767557384
 O    2.321603267378   -3.555055935417    2.641607557384
 O    3.915493267378   -3.008615935417    0.615847557384
 O    4.897483267378   -3.757465935417    2.926427557384
 O    3.698593267378   -5.462415935417    1.464267557384
 C    6.175733267378   -3.829895935417    2.268187557384
 H    6.643443267378   -2.833715935417    2.263807557384
 H    6.078033267378   -4.173125935417    1.228467557384
 H    6.809863267378   -4.536615935417    2.825097557384
 C    3.348253267378   -6.329765935417    2.559027557384
 H    2.385243267378   -6.816415935417    2.340827557384
 H    3.272503267378   -5.775145935417    3.504657557384
 H    4.134123267378   -7.094025935417    2.667247557384
RB    1.580413267378   -1.682695935417    0.816197557384
 P   -4.680467469496    4.983375307524   -2.417201054398
 O   -5.971043580558    4.900510358145   -3.480856540597
 O   -4.772153322593    6.605460810937   -2.018713246730
 O   -3.395166140845    4.698098293823   -3.196046103187
 O   -4.989057065719    4.151658105484   -1.170282275555
 C   -7.249297339327    4.972945259036   -2.822625066627
 H   -7.716999369756    3.976762619791   -2.818239818669
 H   -7.151588451910    5.316175396582   -1.782904626509
 H   -7.883427301817    5.679666845277   -3.379527570313
 C   -4.421816499346    7.472804072570   -3.113470469897
 H   -3.458804742878    7.959449268445   -2.895269876091
 H   -4.346065054387    6.918183434181   -4.059089272830
 H   -5.207675467862    8.237056513897   -3.221693519325
