13

 C    1.923962393415    0.612853610782    0.000000000000
 H    1.457342393415    1.605020610782    0.000000000000
 H    2.561111393415    0.508436610782    0.892506000000
 H    2.561111393415    0.508436610782   -0.892506000000
 C    0.825787393415   -0.438231389218    0.000000000000
 O   -0.380375606585   -0.160177389218    0.000000000000
 N    1.256716393415   -1.738380389218    0.000000000000
 H    2.248893393415   -1.932281389218    0.000000000000
 C    0.298381393415   -2.836908389218    0.000000000000
 H   -0.345683606585   -2.788429389218    0.890708000000
 H   -0.345683606585   -2.788429389218   -0.890708000000
 H    0.851607393415   -3.785333389218    0.000000000000
RB   -0.673056441980    0.796032801375    0.000000000000
