13

 C    1.955427748130    0.510053942370    0.000000000000
 H    1.488807748130    1.502220942370    0.000000000000
 H    2.592576748130    0.405636942370    0.892506000000
 H    2.592576748130    0.405636942370   -0.892506000000
 C    0.857252748130   -0.541031057630    0.000000000000
 O   -0.348910251870   -0.262977057630    0.000000000000
 N    1.288181748130   -1.841180057630    0.000000000000
 H    2.280358748130   -2.035081057630    0.000000000000
 C    0.329846748130   -2.939708057630    0.000000000000
 H   -0.314218251870   -2.891229057630    0.890708000000
 H   -0.314218251870   -2.891229057630   -0.890708000000
 H    0.883072748130   -3.888133057630    0.000000000000
RB   -0.700127254344    0.884475171081    0.000000000000
