13

 C    1.971160425487    0.458654108163    0.000000000000
 H    1.504540425487    1.450821108163    0.000000000000
 H    2.608309425487    0.354237108163    0.892506000000
 H    2.608309425487    0.354237108163   -0.892506000000
 C    0.872985425487   -0.592430891837    0.000000000000
 O   -0.333177574513   -0.314376891837    0.000000000000
 N    1.303914425487   -1.892579891837    0.000000000000
 H    2.296091425487   -2.086480891837    0.000000000000
 C    0.345579425487   -2.991107891837    0.000000000000
 H   -0.298485574513   -2.942628891837    0.890708000000
 H   -0.298485574513   -2.942628891837   -0.890708000000
 H    0.898805425487   -3.939532891837    0.000000000000
RB   -0.713662660525    0.928696355933    0.000000000000
