13

 C    2.018358457560    0.304454605544    0.000000000000
 H    1.551738457560    1.296621605544    0.000000000000
 H    2.655507457560    0.200037605544    0.892506000000
 H    2.655507457560    0.200037605544   -0.892506000000
 C    0.920183457560   -0.746630394456    0.000000000000
 O   -0.285979542440   -0.468576394456    0.000000000000
 N    1.351112457560   -2.046779394456    0.000000000000
 H    2.343289457560   -2.240680394456    0.000000000000
 C    0.392777457560   -3.145307394456    0.000000000000
 H   -0.251287542440   -3.096828394456    0.890708000000
 H   -0.251287542440   -3.096828394456   -0.890708000000
 H    0.946003457560   -4.093732394456    0.000000000000
RB   -0.754268879071    1.061359910492    0.000000000000
