13

 C    2.034091134918    0.253054771338    0.000000000000
 H    1.567471134918    1.245221771338    0.000000000000
 H    2.671240134918    0.148637771338    0.892506000000
 H    2.671240134918    0.148637771338   -0.892506000000
 C    0.935916134918   -0.798030228662    0.000000000000
 O   -0.270246865082   -0.519976228662    0.000000000000
 N    1.366845134918   -2.098179228662    0.000000000000
 H    2.359022134918   -2.292080228662    0.000000000000
 C    0.408510134918   -3.196707228662    0.000000000000
 H   -0.235554865082   -3.148228228662    0.890708000000
 H   -0.235554865082   -3.148228228662   -0.890708000000
 H    0.961736134918   -4.145132228662    0.000000000000
RB   -0.767804285253    1.105581095345    0.000000000000
