13

 C    2.065556489633    0.150255102925    0.000000000000
 H    1.598936489633    1.142422102925    0.000000000000
 H    2.702705489633    0.045838102925    0.892506000000
 H    2.702705489633    0.045838102925   -0.892506000000
 C    0.967381489633   -0.900829897075    0.000000000000
 O   -0.238781510367   -0.622775897075    0.000000000000
 N    1.398310489633   -2.200978897075    0.000000000000
 H    2.390487489633   -2.394879897075    0.000000000000
 C    0.439975489633   -3.299506897075    0.000000000000
 H   -0.204089510367   -3.251027897075    0.890708000000
 H   -0.204089510367   -3.251027897075   -0.890708000000
 H    0.993201489633   -4.247931897075    0.000000000000
RB   -0.794875097616    1.194023465051    0.000000000000
