13

 C    2.144219876421   -0.106744068107    0.000000000000
 H    1.677599876421    0.885422931893    0.000000000000
 H    2.781368876421   -0.211161068107    0.892506000000
 H    2.781368876421   -0.211161068107   -0.892506000000
 C    1.046044876421   -1.157829068107    0.000000000000
 O   -0.160118123579   -0.879775068107    0.000000000000
 N    1.476973876421   -2.457978068107    0.000000000000
 H    2.469150876421   -2.651879068107    0.000000000000
 C    0.518638876421   -3.556506068107    0.000000000000
 H   -0.125426123579   -3.508027068107    0.890708000000
 H   -0.125426123579   -3.508027068107   -0.890708000000
 H    1.071864876421   -4.504931068107    0.000000000000
RB   -0.862552128526    1.415129389315    0.000000000000
