13

 C    2.159952553779   -0.158143902313    0.000000000000
 H    1.693332553779    0.834023097687    0.000000000000
 H    2.797101553779   -0.262560902313    0.892506000000
 H    2.797101553779   -0.262560902313   -0.892506000000
 C    1.061777553779   -1.209228902313    0.000000000000
 O   -0.144385446221   -0.931174902313    0.000000000000
 N    1.492706553779   -2.509377902313    0.000000000000
 H    2.484883553779   -2.703278902313    0.000000000000
 C    0.534371553779   -3.607905902313    0.000000000000
 H   -0.109693446221   -3.559426902313    0.890708000000
 H   -0.109693446221   -3.559426902313   -0.890708000000
 H    1.087597553779   -4.556330902313    0.000000000000
RB   -0.876087534707    1.459350574168    0.000000000000
