13

 C    2.175685231136   -0.209543736520    0.000000000000
 H    1.709065231136    0.782623263480    0.000000000000
 H    2.812834231136   -0.313960736520    0.892506000000
 H    2.812834231136   -0.313960736520   -0.892506000000
 C    1.077510231136   -1.260628736520    0.000000000000
 O   -0.128652768864   -0.982574736520    0.000000000000
 N    1.508439231136   -2.560777736520    0.000000000000
 H    2.500616231136   -2.754678736520    0.000000000000
 C    0.550104231136   -3.659305736520    0.000000000000
 H   -0.093960768864   -3.610826736520    0.890708000000
 H   -0.093960768864   -3.610826736520   -0.890708000000
 H    1.103330231136   -4.607730736520    0.000000000000
RB   -0.889622940889    1.503571759021    0.000000000000
