13

 C    2.191417908494   -0.260943570726    0.000000000000
 H    1.724797908494    0.731223429274    0.000000000000
 H    2.828566908494   -0.365360570726    0.892506000000
 H    2.828566908494   -0.365360570726   -0.892506000000
 C    1.093242908494   -1.312028570726    0.000000000000
 O   -0.112920091506   -1.033974570726    0.000000000000
 N    1.524171908494   -2.612177570726    0.000000000000
 H    2.516348908494   -2.806078570726    0.000000000000
 C    0.565836908494   -3.710705570726    0.000000000000
 H   -0.078228091506   -3.662226570726    0.890708000000
 H   -0.078228091506   -3.662226570726   -0.890708000000
 H    1.119062908494   -4.659130570726    0.000000000000
RB   -0.903158347071    1.547792943874    0.000000000000
