13

 C    2.238615940567   -0.415143073345    0.000000000000
 H    1.771995940567    0.577023926655    0.000000000000
 H    2.875764940567   -0.519560073345    0.892506000000
 H    2.875764940567   -0.519560073345   -0.892506000000
 C    1.140440940567   -1.466228073345    0.000000000000
 O   -0.065722059433   -1.188174073345    0.000000000000
 N    1.571369940567   -2.766377073345    0.000000000000
 H    2.563546940567   -2.960278073345    0.000000000000
 C    0.613034940567   -3.864905073345    0.000000000000
 H   -0.031030059433   -3.816426073345    0.890708000000
 H   -0.031030059433   -3.816426073345   -0.890708000000
 H    1.166260940567   -4.813330073345    0.000000000000
RB   -0.943764565616    1.680456498432    0.000000000000
