13

 C    2.317279327355   -0.672142244377    0.000000000000
 H    1.850659327355    0.320024755623    0.000000000000
 H    2.954428327355   -0.776559244377    0.892506000000
 H    2.954428327355   -0.776559244377   -0.892506000000
 C    1.219104327355   -1.723227244377    0.000000000000
 O    0.012941327355   -1.445173244377    0.000000000000
 N    1.650033327355   -3.023376244377    0.000000000000
 H    2.642210327355   -3.217277244377    0.000000000000
 C    0.691698327355   -4.121904244377    0.000000000000
 H    0.047633327355   -4.073425244377    0.890708000000
 H    0.047633327355   -4.073425244377   -0.890708000000
 H    1.244924327355   -5.070329244377    0.000000000000
RB   -1.011441596526    1.901562422696    0.000000000000
