13

 C    2.333012004713   -0.723542078583    0.000000000000
 H    1.866392004713    0.268624921417    0.000000000000
 H    2.970161004713   -0.827959078583    0.892506000000
 H    2.970161004713   -0.827959078583   -0.892506000000
 C    1.234837004713   -1.774627078583    0.000000000000
 O    0.028674004713   -1.496573078583    0.000000000000
 N    1.665766004713   -3.074776078583    0.000000000000
 H    2.657943004713   -3.268677078583    0.000000000000
 C    0.707431004713   -4.173304078583    0.000000000000
 H    0.063366004713   -4.124825078583    0.890708000000
 H    0.063366004713   -4.124825078583   -0.890708000000
 H    1.260657004713   -5.121729078583    0.000000000000
RB   -1.024977002707    1.945783607549    0.000000000000
