13

 C    2.411675391501   -0.980541249615    0.000000000000
 H    1.945055391501    0.011625750385    0.000000000000
 H    3.048824391501   -1.084958249615    0.892506000000
 H    3.048824391501   -1.084958249615   -0.892506000000
 C    1.313500391501   -2.031626249615    0.000000000000
 O    0.107337391501   -1.753572249615    0.000000000000
 N    1.744429391501   -3.331775249615    0.000000000000
 H    2.736606391501   -3.525676249615    0.000000000000
 C    0.786094391501   -4.430303249615    0.000000000000
 H    0.142029391501   -4.381824249615    0.890708000000
 H    0.142029391501   -4.381824249615   -0.890708000000
 H    1.339320391501   -5.378728249615    0.000000000000
RB   -1.092654033617    2.166889531814    0.000000000000
