13

 C    2.443140746216   -1.083340918028    0.000000000000
 H    1.976520746216   -0.091173918028    0.000000000000
 H    3.080289746216   -1.187757918028    0.892506000000
 H    3.080289746216   -1.187757918028   -0.892506000000
 C    1.344965746216   -2.134425918028    0.000000000000
 O    0.138802746216   -1.856371918028    0.000000000000
 N    1.775894746216   -3.434574918028    0.000000000000
 H    2.768071746216   -3.628475918028    0.000000000000
 C    0.817559746216   -4.533102918028    0.000000000000
 H    0.173494746216   -4.484623918028    0.890708000000
 H    0.173494746216   -4.484623918028   -0.890708000000
 H    1.370785746216   -5.481527918028    0.000000000000
RB   -1.119724845980    2.255331901519    0.000000000000
