13

 C    2.458873423574   -1.134740752234    0.000000000000
 H    1.992253423574   -0.142573752234    0.000000000000
 H    3.096022423574   -1.239157752234    0.892506000000
 H    3.096022423574   -1.239157752234   -0.892506000000
 C    1.360698423574   -2.185825752234    0.000000000000
 O    0.154535423574   -1.907771752234    0.000000000000
 N    1.791627423574   -3.485974752234    0.000000000000
 H    2.783804423574   -3.679875752234    0.000000000000
 C    0.833292423574   -4.584502752234    0.000000000000
 H    0.189227423574   -4.536023752234    0.890708000000
 H    0.189227423574   -4.536023752234   -0.890708000000
 H    1.386518423574   -5.532927752234    0.000000000000
RB   -1.133260252162    2.299553086372    0.000000000000
