13

 C    2.537536810362   -1.391739923266    0.000000000000
 H    2.070916810362   -0.399572923266    0.000000000000
 H    3.174685810362   -1.496156923266    0.892506000000
 H    3.174685810362   -1.496156923266   -0.892506000000
 C    1.439361810362   -2.442824923266    0.000000000000
 O    0.233198810362   -2.164770923266    0.000000000000
 N    1.870290810362   -3.742973923266    0.000000000000
 H    2.862467810362   -3.936874923266    0.000000000000
 C    0.911955810362   -4.841501923266    0.000000000000
 H    0.267890810362   -4.793022923266    0.890708000000
 H    0.267890810362   -4.793022923266   -0.890708000000
 H    1.465181810362   -5.789926923266    0.000000000000
RB   -1.200937283071    2.520659010637    0.000000000000
