13

 C    2.553269487719   -1.443139757473    0.000000000000
 H    2.086649487719   -0.450972757473    0.000000000000
 H    3.190418487719   -1.547556757473    0.892506000000
 H    3.190418487719   -1.547556757473   -0.892506000000
 C    1.455094487719   -2.494224757473    0.000000000000
 O    0.248931487719   -2.216170757473    0.000000000000
 N    1.886023487719   -3.794373757473    0.000000000000
 H    2.878200487719   -3.988274757473    0.000000000000
 C    0.927688487719   -4.892901757473    0.000000000000
 H    0.283623487719   -4.844422757473    0.890708000000
 H    0.283623487719   -4.844422757473   -0.890708000000
 H    1.480914487719   -5.841326757473    0.000000000000
RB   -1.214472689253    2.564880195489    0.000000000000
