13

 C    2.679130906580   -1.854338431124    0.000000000000
 H    2.212510906580   -0.862171431124    0.000000000000
 H    3.316279906580   -1.958755431124    0.892506000000
 H    3.316279906580   -1.958755431124   -0.892506000000
 C    1.580955906580   -2.905423431124    0.000000000000
 O    0.374792906580   -2.627369431124    0.000000000000
 N    2.011884906580   -4.205572431124    0.000000000000
 H    3.004061906580   -4.399473431124    0.000000000000
 C    1.053549906580   -5.304100431124    0.000000000000
 H    0.409484906580   -5.255621431124    0.890708000000
 H    0.409484906580   -5.255621431124   -0.890708000000
 H    1.606775906580   -6.252525431124    0.000000000000
RB   -1.322755938708    2.918649674312    0.000000000000
