13

 C    2.773526970726   -2.162737436362    0.000000000000
 H    2.306906970726   -1.170570436362    0.000000000000
 H    3.410675970726   -2.267154436362    0.892506000000
 H    3.410675970726   -2.267154436362   -0.892506000000
 C    1.675351970726   -3.213822436362    0.000000000000
 O    0.469188970726   -2.935768436362    0.000000000000
 N    2.106280970726   -4.513971436362    0.000000000000
 H    3.098457970726   -4.707872436362    0.000000000000
 C    1.147945970726   -5.612499436362    0.000000000000
 H    0.503880970726   -5.564020436362    0.890708000000
 H    0.503880970726   -5.564020436362   -0.890708000000
 H    1.701171970726   -6.560924436362    0.000000000000
RB   -1.403968375799    3.183976783430    0.000000000000
