13

 C    2.836457680156   -2.368336773187    0.000000000000
 H    2.369837680156   -1.376169773187    0.000000000000
 H    3.473606680156   -2.472753773187    0.892506000000
 H    3.473606680156   -2.472753773187   -0.892506000000
 C    1.738282680156   -3.419421773187    0.000000000000
 O    0.532119680156   -3.141367773187    0.000000000000
 N    2.169211680156   -4.719570773187    0.000000000000
 H    3.161388680156   -4.913471773187    0.000000000000
 C    1.210876680156   -5.818098773187    0.000000000000
 H    0.566811680156   -5.769619773187    0.890708000000
 H    0.566811680156   -5.769619773187   -0.890708000000
 H    1.764102680156   -6.766523773187    0.000000000000
RB   -1.458110000526    3.360861522841    0.000000000000
