13

 C    2.883655712229   -2.522536275807    0.000000000000
 H    2.417035712229   -1.530369275807    0.000000000000
 H    3.520804712229   -2.626953275807    0.892506000000
 H    3.520804712229   -2.626953275807   -0.892506000000
 C    1.785480712229   -3.573621275807    0.000000000000
 O    0.579317712229   -3.295567275807    0.000000000000
 N    2.216409712229   -4.873770275807    0.000000000000
 H    3.208586712229   -5.067671275807    0.000000000000
 C    1.258074712229   -5.972298275807    0.000000000000
 H    0.614009712229   -5.923819275807    0.890708000000
 H    0.614009712229   -5.923819275807   -0.890708000000
 H    1.811300712229   -6.920723275807    0.000000000000
RB   -1.498716219071    3.493525077400    0.000000000000
