13

 C    3.009517131090   -2.933734949458    0.000000000000
 H    2.542897131090   -1.941567949458    0.000000000000
 H    3.646666131090   -3.038151949458    0.892506000000
 H    3.646666131090   -3.038151949458   -0.892506000000
 C    1.911342131090   -3.984819949458    0.000000000000
 O    0.705179131090   -3.706765949458    0.000000000000
 N    2.342271131090   -5.284968949458    0.000000000000
 H    3.334448131090   -5.478869949458    0.000000000000
 C    1.383936131090   -6.383496949458    0.000000000000
 H    0.739871131090   -6.335017949458    0.890708000000
 H    0.739871131090   -6.335017949458   -0.890708000000
 H    1.937162131090   -7.331921949458    0.000000000000
RB   -1.606999468526    3.847294556223    0.000000000000
