13

 C    3.025249808448   -2.985134783664    0.000000000000
 H    2.558629808448   -1.992967783664    0.000000000000
 H    3.662398808448   -3.089551783664    0.892506000000
 H    3.662398808448   -3.089551783664   -0.892506000000
 C    1.927074808448   -4.036219783664    0.000000000000
 O    0.720911808448   -3.758165783664    0.000000000000
 N    2.358003808448   -5.336368783664    0.000000000000
 H    3.350180808448   -5.530269783664    0.000000000000
 C    1.399668808448   -6.434896783664    0.000000000000
 H    0.755603808448   -6.386417783664    0.890708000000
 H    0.755603808448   -6.386417783664   -0.890708000000
 H    1.952894808448   -7.383321783664    0.000000000000
RB   -1.620534874708    3.891515741075    0.000000000000
