13

 C    3.198309259382   -3.550532959934    0.000000000000
 H    2.731689259382   -2.558365959934    0.000000000000
 H    3.835458259382   -3.654949959934    0.892506000000
 H    3.835458259382   -3.654949959934   -0.892506000000
 C    2.100134259382   -4.601617959934    0.000000000000
 O    0.893971259382   -4.323563959934    0.000000000000
 N    2.531063259382   -5.901766959934    0.000000000000
 H    3.523240259382   -6.095667959934    0.000000000000
 C    1.572728259382   -7.000294959934    0.000000000000
 H    0.928663259382   -6.951815959934    0.890708000000
 H    0.928663259382   -6.951815959934   -0.890708000000
 H    2.125954259382   -7.948719959934    0.000000000000
RB   -1.769424342708    4.377948774457    0.000000000000
