13

 C    3.261239968812   -3.756132296760    0.000000000000
 H    2.794619968812   -2.763965296760    0.000000000000
 H    3.898388968812   -3.860549296760    0.892506000000
 H    3.898388968812   -3.860549296760   -0.892506000000
 C    2.163064968812   -4.807217296760    0.000000000000
 O    0.956901968812   -4.529163296760    0.000000000000
 N    2.593993968812   -6.107366296760    0.000000000000
 H    3.586170968812   -6.301267296760    0.000000000000
 C    1.635658968812   -7.205894296760    0.000000000000
 H    0.991593968812   -7.157415296760    0.890708000000
 H    0.991593968812   -7.157415296760   -0.890708000000
 H    2.188884968812   -8.154319296760    0.000000000000
RB   -1.823565967435    4.554833513868    0.000000000000
