13

 C    3.292705323527   -3.858931965172    0.000000000000
 H    2.826085323527   -2.866764965172    0.000000000000
 H    3.929854323527   -3.963348965172    0.892506000000
 H    3.929854323527   -3.963348965172   -0.892506000000
 C    2.194530323527   -4.910016965172    0.000000000000
 O    0.988367323527   -4.631962965172    0.000000000000
 N    2.625459323527   -6.210165965172    0.000000000000
 H    3.617636323527   -6.404066965172    0.000000000000
 C    1.667124323527   -7.308693965172    0.000000000000
 H    1.023059323527   -7.260214965172    0.890708000000
 H    1.023059323527   -7.260214965172   -0.890708000000
 H    2.220350323527   -8.257118965172    0.000000000000
RB   -1.850636779799    4.643275883574    0.000000000000
