14

 C   -0.266153916341   -2.702125055503    0.000000000000
 H   -0.258431916341   -3.795300055503    0.000000000000
 C    0.944322083659   -1.982286055503    0.000000000000
 H    1.899341083659   -2.515985055503    0.000000000000
 C   -1.485977916341   -2.002119055503    0.000000000000
 H   -2.434109916341   -2.547931055503    0.000000000000
 C    0.941914083659   -0.577141055503    0.000000000000
 H    1.873268083659   -0.004602055503    0.000000000000
 C   -1.499828916341   -0.594638055503    0.000000000000
 H   -2.451827916341   -0.051917055503    0.000000000000
 C   -0.283551916341    0.113143944497    0.000000000000
 O   -0.223004916341    1.493604944497    0.000000000000
 H   -1.126135916341    1.842031944497    0.000000000000
 K    0.664097631494    1.955177332778    0.000000000000
