14

 C   -0.318128886953   -2.729168390431    0.000000000000
 H   -0.310406886953   -3.822343390431    0.000000000000
 C    0.892347113047   -2.009329390431    0.000000000000
 H    1.847366113047   -2.543028390431    0.000000000000
 C   -1.537952886953   -2.029162390431    0.000000000000
 H   -2.486084886953   -2.574974390431    0.000000000000
 C    0.889939113047   -0.604184390431    0.000000000000
 H    1.821293113047   -0.031645390431    0.000000000000
 C   -1.551803886953   -0.621681390431    0.000000000000
 H   -2.503802886953   -0.078960390431    0.000000000000
 C   -0.335526886953    0.086100609569    0.000000000000
 O   -0.274979886953    1.466561609569    0.000000000000
 H   -1.178110886953    1.814988609569    0.000000000000
 K    0.789543170450    2.020448475507    0.000000000000
