14

 C   -0.500041284093   -2.823820062676    0.000000000000
 H   -0.492319284093   -3.916995062676    0.000000000000
 C    0.710434715907   -2.103981062676    0.000000000000
 H    1.665453715907   -2.637680062676    0.000000000000
 C   -1.719865284093   -2.123814062676    0.000000000000
 H   -2.667997284093   -2.669626062676    0.000000000000
 C    0.708026715907   -0.698836062676    0.000000000000
 H    1.639380715907   -0.126297062676    0.000000000000
 C   -1.733716284093   -0.716333062676    0.000000000000
 H   -2.685715284093   -0.173612062676    0.000000000000
 C   -0.517439284093   -0.008551062676    0.000000000000
 O   -0.456892284093    1.371909937324    0.000000000000
 H   -1.360023284093    1.720336937324    0.000000000000
 K    1.228602556794    2.248897475059    0.000000000000
