14

 C   -0.578003740010   -2.864385065067    0.000000000000
 H   -0.570281740010   -3.957560065067    0.000000000000
 C    0.632472259990   -2.144546065067    0.000000000000
 H    1.587491259990   -2.678245065067    0.000000000000
 C   -1.797827740010   -2.164379065067    0.000000000000
 H   -2.745959740010   -2.710191065067    0.000000000000
 C    0.630064259990   -0.739401065067    0.000000000000
 H    1.561418259990   -0.166862065067    0.000000000000
 C   -1.811678740010   -0.756898065067    0.000000000000
 H   -2.763677740010   -0.214177065067    0.000000000000
 C   -0.595401740010   -0.049116065067    0.000000000000
 O   -0.534854740010    1.331344934933    0.000000000000
 H   -1.437985740010    1.679771934933    0.000000000000
 K    1.416770865228    2.346804189153    0.000000000000
