14

 C   -0.629978710621   -2.891428399995    0.000000000000
 H   -0.622256710621   -3.984603399995    0.000000000000
 C    0.580497289379   -2.171589399995    0.000000000000
 H    1.535516289379   -2.705288399995    0.000000000000
 C   -1.849802710621   -2.191422399995    0.000000000000
 H   -2.797934710621   -2.737234399995    0.000000000000
 C    0.578089289379   -0.766444399995    0.000000000000
 H    1.509443289379   -0.193905399995    0.000000000000
 C   -1.863653710621   -0.783941399995    0.000000000000
 H   -2.815652710621   -0.241220399995    0.000000000000
 C   -0.647376710621   -0.076159399995    0.000000000000
 O   -0.586829710621    1.304301600005    0.000000000000
 H   -1.489960710621    1.652728600005    0.000000000000
 K    1.542216404183    2.412075331882    0.000000000000
