14

 C   -0.681953681233   -2.918471734922    0.000000000000
 H   -0.674231681233   -4.011646734922    0.000000000000
 C    0.528522318767   -2.198632734922    0.000000000000
 H    1.483541318767   -2.732331734922    0.000000000000
 C   -1.901777681233   -2.218465734922    0.000000000000
 H   -2.849909681233   -2.764277734922    0.000000000000
 C    0.526114318767   -0.793487734922    0.000000000000
 H    1.457468318767   -0.220948734922    0.000000000000
 C   -1.915628681233   -0.810984734922    0.000000000000
 H   -2.867627681233   -0.268263734922    0.000000000000
 C   -0.699351681233   -0.103202734922    0.000000000000
 O   -0.638804681233    1.277258265078    0.000000000000
 H   -1.541935681233    1.625685265078    0.000000000000
 K    1.667661943139    2.477346474611    0.000000000000
