14

 C   -0.941828534290   -3.053688409559    0.000000000000
 H   -0.934106534290   -4.146863409559    0.000000000000
 C    0.268647465710   -2.333849409559    0.000000000000
 H    1.223666465710   -2.867548409559    0.000000000000
 C   -2.161652534290   -2.353682409559    0.000000000000
 H   -3.109784534290   -2.899494409559    0.000000000000
 C    0.266239465710   -0.928704409559    0.000000000000
 H    1.197593465710   -0.356165409559    0.000000000000
 C   -2.175503534290   -0.946201409559    0.000000000000
 H   -3.127502534290   -0.403480409559    0.000000000000
 C   -0.959226534290   -0.238419409559    0.000000000000
 O   -0.898679534290    1.142041590441    0.000000000000
 H   -1.801810534290    1.490468590441    0.000000000000
 K    2.294889637917    2.803702188256    0.000000000000
