14

 C   -1.045778475513   -3.107775079413    0.000000000000
 H   -1.038056475513   -4.200950079413    0.000000000000
 C    0.164697524487   -2.387936079413    0.000000000000
 H    1.119716524487   -2.921635079413    0.000000000000
 C   -2.265602475513   -2.407769079413    0.000000000000
 H   -3.213734475513   -2.953581079413    0.000000000000
 C    0.162289524487   -0.982791079413    0.000000000000
 H    1.093643524487   -0.410252079413    0.000000000000
 C   -2.279453475513   -1.000288079413    0.000000000000
 H   -3.231452475513   -0.457567079413    0.000000000000
 C   -1.063176475513   -0.292506079413    0.000000000000
 O   -1.002629475513    1.087954920587    0.000000000000
 H   -1.905760475513    1.436381920587    0.000000000000
 K    2.545780715829    2.934244473714    0.000000000000
