14

 C   -1.071765960818   -3.121296746877    0.000000000000
 H   -1.064043960818   -4.214471746877    0.000000000000
 C    0.138710039182   -2.401457746877    0.000000000000
 H    1.093729039182   -2.935156746877    0.000000000000
 C   -2.291589960818   -2.421290746877    0.000000000000
 H   -3.239721960818   -2.967102746877    0.000000000000
 C    0.136302039182   -0.996312746877    0.000000000000
 H    1.067656039182   -0.423773746877    0.000000000000
 C   -2.305440960818   -1.013809746877    0.000000000000
 H   -3.257439960818   -0.471088746877    0.000000000000
 C   -1.089163960818   -0.306027746877    0.000000000000
 O   -1.028616960818    1.074433253123    0.000000000000
 H   -1.931747960818    1.422860253123    0.000000000000
 K    2.608503485306    2.966880045079    0.000000000000
