14

 C   -1.123740931430   -3.148340081804    0.000000000000
 H   -1.116018931430   -4.241515081804    0.000000000000
 C    0.086735068570   -2.428501081804    0.000000000000
 H    1.041754068570   -2.962200081804    0.000000000000
 C   -2.343564931430   -2.448334081804    0.000000000000
 H   -3.291696931430   -2.994146081804    0.000000000000
 C    0.084327068570   -1.023356081804    0.000000000000
 H    1.015681068570   -0.450817081804    0.000000000000
 C   -2.357415931430   -1.040853081804    0.000000000000
 H   -3.309414931430   -0.498132081804    0.000000000000
 C   -1.141138931430   -0.333071081804    0.000000000000
 O   -1.080591931430    1.047389918196    0.000000000000
 H   -1.983722931430    1.395816918196    0.000000000000
 K    2.733949024262    3.032151187808    0.000000000000
