14

 C   -1.149728416735   -3.161861749268    0.000000000000
 H   -1.142006416735   -4.255036749268    0.000000000000
 C    0.060747583265   -2.442022749268    0.000000000000
 H    1.015766583265   -2.975721749268    0.000000000000
 C   -2.369552416735   -2.461855749268    0.000000000000
 H   -3.317684416735   -3.007667749268    0.000000000000
 C    0.058339583265   -1.036877749268    0.000000000000
 H    0.989693583265   -0.464338749268    0.000000000000
 C   -2.383403416735   -1.054374749268    0.000000000000
 H   -3.335402416735   -0.511653749268    0.000000000000
 C   -1.167126416735   -0.346592749268    0.000000000000
 O   -1.106579416735    1.033868250732    0.000000000000
 H   -2.009710416735    1.382295250732    0.000000000000
 K    2.796671793740    3.064786759172    0.000000000000
