14

 C   -1.253678357958   -3.215948419122    0.000000000000
 H   -1.245956357958   -4.309123419122    0.000000000000
 C   -0.043202357958   -2.496109419122    0.000000000000
 H    0.911816642042   -3.029808419122    0.000000000000
 C   -2.473502357958   -2.515942419122    0.000000000000
 H   -3.421634357958   -3.061754419122    0.000000000000
 C   -0.045610357958   -1.090964419122    0.000000000000
 H    0.885743642042   -0.518425419122    0.000000000000
 C   -2.487353357958   -1.108461419122    0.000000000000
 H   -3.439352357958   -0.565740419122    0.000000000000
 C   -1.271076357958   -0.400679419122    0.000000000000
 O   -1.210529357958    0.979781580878    0.000000000000
 H   -2.113660357958    1.328208580878    0.000000000000
 K    3.047562871651    3.195329044630    0.000000000000
