14

 C   -1.279665843264   -3.229470086586    0.000000000000
 H   -1.271943843264   -4.322645086586    0.000000000000
 C   -0.069189843264   -2.509631086586    0.000000000000
 H    0.885829156736   -3.043330086586    0.000000000000
 C   -2.499489843264   -2.529464086586    0.000000000000
 H   -3.447621843264   -3.075276086586    0.000000000000
 C   -0.071597843264   -1.104486086586    0.000000000000
 H    0.859756156736   -0.531947086586    0.000000000000
 C   -2.513340843264   -1.121983086586    0.000000000000
 H   -3.465339843264   -0.579262086586    0.000000000000
 C   -1.297063843264   -0.414201086586    0.000000000000
 O   -1.236516843264    0.966259913414    0.000000000000
 H   -2.139647843264    1.314686913414    0.000000000000
 K    3.110285641129    3.227964615995    0.000000000000
