14

 C   -1.461578240404   -3.324121758832    0.000000000000
 H   -1.453856240404   -4.417296758832    0.000000000000
 C   -0.251102240404   -2.604282758832    0.000000000000
 H    0.703916759596   -3.137981758832    0.000000000000
 C   -2.681402240404   -2.624115758832    0.000000000000
 H   -3.629534240404   -3.169927758832    0.000000000000
 C   -0.253510240404   -1.199137758832    0.000000000000
 H    0.677843759596   -0.626598758832    0.000000000000
 C   -2.695253240404   -1.216634758832    0.000000000000
 H   -3.647252240404   -0.673913758832    0.000000000000
 C   -1.478976240404   -0.508852758832    0.000000000000
 O   -1.418429240404    0.871608241168    0.000000000000
 H   -2.321560240404    1.220035241168    0.000000000000
 K    3.549345027474    3.456413615546    0.000000000000
