14

 C   -1.487565725710   -3.337643426295    0.000000000000
 H   -1.479843725710   -4.430818426295    0.000000000000
 C   -0.277089725710   -2.617804426295    0.000000000000
 H    0.677929274290   -3.151503426295    0.000000000000
 C   -2.707389725710   -2.637637426295    0.000000000000
 H   -3.655521725710   -3.183449426295    0.000000000000
 C   -0.279497725710   -1.212659426295    0.000000000000
 H    0.651856274290   -0.640120426295    0.000000000000
 C   -2.721240725710   -1.230156426295    0.000000000000
 H   -3.673239725710   -0.687435426295    0.000000000000
 C   -1.504963725710   -0.522374426295    0.000000000000
 O   -1.444416725710    0.858086573705    0.000000000000
 H   -2.347547725710    1.206513573705    0.000000000000
 K    3.612067796952    3.489049186911    0.000000000000
