14

 C   -1.513553211015   -3.351165093759    0.000000000000
 H   -1.505831211015   -4.444340093759    0.000000000000
 C   -0.303077211015   -2.631326093759    0.000000000000
 H    0.651941788985   -3.165025093759    0.000000000000
 C   -2.733377211015   -2.651159093759    0.000000000000
 H   -3.681509211015   -3.196971093759    0.000000000000
 C   -0.305485211015   -1.226181093759    0.000000000000
 H    0.625868788985   -0.653642093759    0.000000000000
 C   -2.747228211015   -1.243678093759    0.000000000000
 H   -3.699227211015   -0.700957093759    0.000000000000
 C   -1.530951211015   -0.535896093759    0.000000000000
 O   -1.470404211015    0.844564906241    0.000000000000
 H   -2.373535211015    1.192991906241    0.000000000000
 K    3.674790566429    3.521684758275    0.000000000000
