14

 C   -1.565528181627   -3.378208428686    0.000000000000
 H   -1.557806181627   -4.471383428686    0.000000000000
 C   -0.355052181627   -2.658369428686    0.000000000000
 H    0.599966818373   -3.192068428686    0.000000000000
 C   -2.785352181627   -2.678202428686    0.000000000000
 H   -3.733484181627   -3.224014428686    0.000000000000
 C   -0.357460181627   -1.253224428686    0.000000000000
 H    0.573893818373   -0.680685428686    0.000000000000
 C   -2.799203181627   -1.270721428686    0.000000000000
 H   -3.751202181627   -0.728000428686    0.000000000000
 C   -1.582926181627   -0.562939428686    0.000000000000
 O   -1.522379181627    0.817521571314    0.000000000000
 H   -2.425510181627    1.165948571314    0.000000000000
 K    3.800236105385    3.586955901004    0.000000000000
