14

 C   -1.591515666932   -3.391730096150    0.000000000000
 H   -1.583793666932   -4.484905096150    0.000000000000
 C   -0.381039666932   -2.671891096150    0.000000000000
 H    0.573979333068   -3.205590096150    0.000000000000
 C   -2.811339666932   -2.691724096150    0.000000000000
 H   -3.759471666932   -3.237536096150    0.000000000000
 C   -0.383447666932   -1.266746096150    0.000000000000
 H    0.547906333068   -0.694207096150    0.000000000000
 C   -2.825190666932   -1.284243096150    0.000000000000
 H   -3.777189666932   -0.741522096150    0.000000000000
 C   -1.608913666932   -0.576461096150    0.000000000000
 O   -1.548366666932    0.803999903850    0.000000000000
 H   -2.451497666932    1.152426903850    0.000000000000
 K    3.862958874863    3.619591472369    0.000000000000
