14

 C   -1.617503152238   -3.405251763614    0.000000000000
 H   -1.609781152238   -4.498426763614    0.000000000000
 C   -0.407027152238   -2.685412763614    0.000000000000
 H    0.547991847762   -3.219111763614    0.000000000000
 C   -2.837327152238   -2.705245763614    0.000000000000
 H   -3.785459152238   -3.251057763614    0.000000000000
 C   -0.409435152238   -1.280267763614    0.000000000000
 H    0.521918847762   -0.707728763614    0.000000000000
 C   -2.851178152238   -1.297764763614    0.000000000000
 H   -3.803177152238   -0.755043763614    0.000000000000
 C   -1.634901152238   -0.589982763614    0.000000000000
 O   -1.574354152238    0.790478236386    0.000000000000
 H   -2.477485152238    1.138905236386    0.000000000000
 K    3.925681644341    3.652227043733    0.000000000000
