14

 C   -1.695465608155   -3.445816766005    0.000000000000
 H   -1.687743608155   -4.538991766005    0.000000000000
 C   -0.484989608155   -2.725977766005    0.000000000000
 H    0.470029391845   -3.259676766005    0.000000000000
 C   -2.915289608155   -2.745810766005    0.000000000000
 H   -3.863421608155   -3.291622766005    0.000000000000
 C   -0.487397608155   -1.320832766005    0.000000000000
 H    0.443956391845   -0.748293766005    0.000000000000
 C   -2.929140608155   -1.338329766005    0.000000000000
 H   -3.881139608155   -0.795608766005    0.000000000000
 C   -1.712863608155   -0.630547766005    0.000000000000
 O   -1.652316608155    0.749913233995    0.000000000000
 H   -2.555447608155    1.098340233995    0.000000000000
 K    4.113849952774    3.750133757827    0.000000000000
