14

 C   -1.747440578767   -3.472860100932    0.000000000000
 H   -1.739718578767   -4.566035100932    0.000000000000
 C   -0.536964578767   -2.753021100932    0.000000000000
 H    0.418054421233   -3.286720100932    0.000000000000
 C   -2.967264578767   -2.772854100932    0.000000000000
 H   -3.915396578767   -3.318666100932    0.000000000000
 C   -0.539372578767   -1.347876100932    0.000000000000
 H    0.391981421233   -0.775337100932    0.000000000000
 C   -2.981115578767   -1.365373100932    0.000000000000
 H   -3.933114578767   -0.822652100932    0.000000000000
 C   -1.764838578767   -0.657591100932    0.000000000000
 O   -1.704291578767    0.722869899068    0.000000000000
 H   -2.607422578767    1.071296899068    0.000000000000
 K    4.239295491730    3.815404900556    0.000000000000
