14

 C   -1.877378005295   -3.540468438250    0.000000000000
 H   -1.869656005295   -4.633643438250    0.000000000000
 C   -0.666902005295   -2.820629438250    0.000000000000
 H    0.288116994705   -3.354328438250    0.000000000000
 C   -3.097202005295   -2.840462438250    0.000000000000
 H   -4.045334005295   -3.386274438250    0.000000000000
 C   -0.669310005295   -1.415484438250    0.000000000000
 H    0.262043994705   -0.842945438250    0.000000000000
 C   -3.111053005295   -1.432981438250    0.000000000000
 H   -4.063052005295   -0.890260438250    0.000000000000
 C   -1.894776005295   -0.725199438250    0.000000000000
 O   -1.834229005295    0.655261561750    0.000000000000
 H   -2.737360005295    1.003688561750    0.000000000000
 K    4.552909339119    3.978582757379    0.000000000000
