14

 C   -1.903365490601   -3.553990105714    0.000000000000
 H   -1.895643490601   -4.647165105714    0.000000000000
 C   -0.692889490601   -2.834151105714    0.000000000000
 H    0.262129509399   -3.367850105714    0.000000000000
 C   -3.123189490601   -2.853984105714    0.000000000000
 H   -4.071321490601   -3.399796105714    0.000000000000
 C   -0.695297490601   -1.429006105714    0.000000000000
 H    0.236056509399   -0.856467105714    0.000000000000
 C   -3.137040490601   -1.446503105714    0.000000000000
 H   -4.089039490601   -0.903782105714    0.000000000000
 C   -1.920763490601   -0.738721105714    0.000000000000
 O   -1.860216490601    0.641739894286    0.000000000000
 H   -2.763347490601    0.990166894286    0.000000000000
 K    4.615632108597    4.011218328743    0.000000000000
