14

 C   -1.955340461212   -3.581033440641    0.000000000000
 H   -1.947618461212   -4.674208440641    0.000000000000
 C   -0.744864461212   -2.861194440641    0.000000000000
 H    0.210154538788   -3.394893440641    0.000000000000
 C   -3.175164461212   -2.881027440641    0.000000000000
 H   -4.123296461212   -3.426839440641    0.000000000000
 C   -0.747272461212   -1.456049440641    0.000000000000
 H    0.184081538788   -0.883510440641    0.000000000000
 C   -3.189015461212   -1.473546440641    0.000000000000
 H   -4.141014461212   -0.930825440641    0.000000000000
 C   -1.972738461212   -0.765764440641    0.000000000000
 O   -1.912191461212    0.614696559359    0.000000000000
 H   -2.815322461212    0.963123559359    0.000000000000
 K    4.741077647552    4.076489471472    0.000000000000
