14

 C   -2.137252858352   -3.675685112887    0.000000000000
 H   -2.129530858352   -4.768860112887    0.000000000000
 C   -0.926776858352   -2.955846112887    0.000000000000
 H    0.028242141648   -3.489545112887    0.000000000000
 C   -3.357076858352   -2.975679112887    0.000000000000
 H   -4.305208858352   -3.521491112887    0.000000000000
 C   -0.929184858352   -1.550701112887    0.000000000000
 H    0.002169141648   -0.978162112887    0.000000000000
 C   -3.370927858352   -1.568198112887    0.000000000000
 H   -4.322926858352   -1.025477112887    0.000000000000
 C   -2.154650858352   -0.860416112887    0.000000000000
 O   -2.094103858352    0.520044887113    0.000000000000
 H   -2.997234858352    0.868471887113    0.000000000000
 K    5.180137033897    4.304938471024    0.000000000000
