14

 C   -2.163240343658   -3.689206780351    0.000000000000
 H   -2.155518343658   -4.782381780351    0.000000000000
 C   -0.952764343658   -2.969367780351    0.000000000000
 H    0.002254656342   -3.503066780351    0.000000000000
 C   -3.383064343658   -2.989200780351    0.000000000000
 H   -4.331196343658   -3.535012780351    0.000000000000
 C   -0.955172343658   -1.564222780351    0.000000000000
 H   -0.023818343658   -0.991683780351    0.000000000000
 C   -3.396915343658   -1.581719780351    0.000000000000
 H   -4.348914343658   -1.038998780351    0.000000000000
 C   -2.180638343658   -0.873937780351    0.000000000000
 O   -2.120091343658    0.506523219649    0.000000000000
 H   -3.023222343658    0.854950219649    0.000000000000
 K    5.242859803375    4.337574042388    0.000000000000
