14

 C   -2.189227828964   -3.702728447814    0.000000000000
 H   -2.181505828964   -4.795903447814    0.000000000000
 C   -0.978751828964   -2.982889447814    0.000000000000
 H   -0.023732828964   -3.516588447814    0.000000000000
 C   -3.409051828964   -3.002722447814    0.000000000000
 H   -4.357183828964   -3.548534447814    0.000000000000
 C   -0.981159828964   -1.577744447814    0.000000000000
 H   -0.049805828964   -1.005205447814    0.000000000000
 C   -3.422902828964   -1.595241447814    0.000000000000
 H   -4.374901828964   -1.052520447814    0.000000000000
 C   -2.206625828964   -0.887459447814    0.000000000000
 O   -2.146078828964    0.493001552186    0.000000000000
 H   -3.049209828964    0.841428552186    0.000000000000
 K    5.305582572853    4.370209613753    0.000000000000
