14

 C   -2.215215314269   -3.716250115278    0.000000000000
 H   -2.207493314269   -4.809425115278    0.000000000000
 C   -1.004739314269   -2.996411115278    0.000000000000
 H   -0.049720314269   -3.530110115278    0.000000000000
 C   -3.435039314269   -3.016244115278    0.000000000000
 H   -4.383171314269   -3.562056115278    0.000000000000
 C   -1.007147314269   -1.591266115278    0.000000000000
 H   -0.075793314269   -1.018727115278    0.000000000000
 C   -3.448890314269   -1.608763115278    0.000000000000
 H   -4.400889314269   -1.066042115278    0.000000000000
 C   -2.232613314269   -0.900981115278    0.000000000000
 O   -2.172066314269    0.479479884722    0.000000000000
 H   -3.075197314269    0.827906884722    0.000000000000
 K    5.368305342331    4.402845185117    0.000000000000
