14

 C   -2.371140226104   -3.797380120060    0.000000000000
 H   -2.363418226104   -4.890555120060    0.000000000000
 C   -1.160664226104   -3.077541120060    0.000000000000
 H   -0.205645226104   -3.611240120060    0.000000000000
 C   -3.590964226104   -3.097374120060    0.000000000000
 H   -4.539096226104   -3.643186120060    0.000000000000
 C   -1.163072226104   -1.672396120060    0.000000000000
 H   -0.231718226104   -1.099857120060    0.000000000000
 C   -3.604815226104   -1.689893120060    0.000000000000
 H   -4.556814226104   -1.147172120060    0.000000000000
 C   -2.388538226104   -0.982111120060    0.000000000000
 O   -2.327991226104    0.398349879940    0.000000000000
 H   -3.231122226104    0.746776879940    0.000000000000
 K    5.744641959197    4.598658613305    0.000000000000
