14

 C   -2.397127711409   -3.810901787523    0.000000000000
 H   -2.389405711409   -4.904076787523    0.000000000000
 C   -1.186651711409   -3.091062787523    0.000000000000
 H   -0.231632711409   -3.624761787523    0.000000000000
 C   -3.616951711409   -3.110895787523    0.000000000000
 H   -4.565083711409   -3.656707787523    0.000000000000
 C   -1.189059711409   -1.685917787523    0.000000000000
 H   -0.257705711409   -1.113378787523    0.000000000000
 C   -3.630802711409   -1.703414787523    0.000000000000
 H   -4.582801711409   -1.160693787523    0.000000000000
 C   -2.414525711409   -0.995632787523    0.000000000000
 O   -2.353978711409    0.384828212477    0.000000000000
 H   -3.257109711409    0.733255212477    0.000000000000
 K    5.807364728675    4.631294184669    0.000000000000
