14

 C   -2.449102682021   -3.837945122451    0.000000000000
 H   -2.441380682021   -4.931120122451    0.000000000000
 C   -1.238626682021   -3.118106122451    0.000000000000
 H   -0.283607682021   -3.651805122451    0.000000000000
 C   -3.668926682021   -3.137939122451    0.000000000000
 H   -4.617058682021   -3.683751122451    0.000000000000
 C   -1.241034682021   -1.712961122451    0.000000000000
 H   -0.309680682021   -1.140422122451    0.000000000000
 C   -3.682777682021   -1.730458122451    0.000000000000
 H   -4.634776682021   -1.187737122451    0.000000000000
 C   -2.466500682021   -1.022676122451    0.000000000000
 O   -2.405953682021    0.357784877549    0.000000000000
 H   -3.309084682021    0.706211877549    0.000000000000
 K    5.932810267631    4.696565327398    0.000000000000
