14

 C   -2.501077652632   -3.864988457378    0.000000000000
 H   -2.493355652632   -4.958163457378    0.000000000000
 C   -1.290601652632   -3.145149457378    0.000000000000
 H   -0.335582652632   -3.678848457378    0.000000000000
 C   -3.720901652632   -3.164982457378    0.000000000000
 H   -4.669033652632   -3.710794457378    0.000000000000
 C   -1.293009652632   -1.740004457378    0.000000000000
 H   -0.361655652632   -1.167465457378    0.000000000000
 C   -3.734752652632   -1.757501457378    0.000000000000
 H   -4.686751652632   -1.214780457378    0.000000000000
 C   -2.518475652632   -1.049719457378    0.000000000000
 O   -2.457928652632    0.330741542622    0.000000000000
 H   -3.361059652632    0.679168542622    0.000000000000
 K    6.058255806587    4.761836470127    0.000000000000
