14

 C   -2.553052623244   -3.892031792305    0.000000000000
 H   -2.545330623244   -4.985206792305    0.000000000000
 C   -1.342576623244   -3.172192792305    0.000000000000
 H   -0.387557623244   -3.705891792305    0.000000000000
 C   -3.772876623244   -3.192025792305    0.000000000000
 H   -4.721008623244   -3.737837792305    0.000000000000
 C   -1.344984623244   -1.767047792305    0.000000000000
 H   -0.413630623244   -1.194508792305    0.000000000000
 C   -3.786727623244   -1.784544792305    0.000000000000
 H   -4.738726623244   -1.241823792305    0.000000000000
 C   -2.570450623244   -1.076762792305    0.000000000000
 O   -2.509903623244    0.303698207695    0.000000000000
 H   -3.413034623244    0.652125207695    0.000000000000
 K    6.183701345542    4.827107612856    0.000000000000
