17

 N   -1.149541803189   -1.874784742454   -0.007112760983
 C    0.060646263655   -1.219578538778   -0.003151137015
 N    1.294058677958   -1.818256233240    0.008887147890
 C    2.264481878014   -0.928080091629   -0.002985309083
 N    2.061405040601    0.433558041885   -0.009820469425
 H    2.865232165852    1.053518581640   -0.091808491847
 N    3.589936632251   -1.346754813309   -0.081332612318
 H    4.244472837583   -0.814951588909    0.486308164412
 H    3.668741719642   -2.347454957244    0.080250725671
 C    0.802131298284    1.119591745416    0.003133317252
 O    0.774550929179    2.347764830193   -0.000954811176
 C   -0.270653827692    0.145898356142    0.009334515192
 N   -1.641727129461    0.332229401455    0.009259330476
 C   -2.135250623972   -0.906373612590   -0.001070769189
 H   -3.192748537240   -1.160520234422   -0.004017413615
 H   -1.274638799720   -2.881367827686   -0.015772312014
 K   -2.196305148020    1.282177015578    0.015797813059
