17

 N   -1.128865321327   -1.910201895597   -0.007356536993
 C    0.081322745517   -1.254995691921   -0.003394913025
 N    1.314735159820   -1.853673386383    0.008643371880
 C    2.285158359876   -0.963497244772   -0.003229085093
 N    2.082081522463    0.398140888742   -0.010064245435
 H    2.885908647714    1.018101428497   -0.092052267857
 N    3.610613114113   -1.382171966452   -0.081576388328
 H    4.265149319445   -0.850368742052    0.486064388402
 H    3.689418201504   -2.382872110387    0.080006949661
 C    0.822807780146    1.084174592273    0.002889541242
 O    0.795227411041    2.312347677050   -0.001198587186
 C   -0.249977345830    0.110481202999    0.009090739182
 N   -1.621050647599    0.296812248312    0.009015554466
 C   -2.114574142110   -0.941790765733   -0.001314545199
 H   -3.172072055378   -1.195937387565   -0.004261189625
 H   -1.253962317858   -2.916784980829   -0.016016088024
 K   -2.276461033169    1.419477610456    0.016742852064
