17

 N   -1.087512357603   -1.981036201885   -0.007844089013
 C    0.122675709241   -1.325829998209   -0.003882465045
 N    1.356088123544   -1.924507692671    0.008155819860
 C    2.326511323600   -1.034331551060   -0.003716637113
 N    2.123434486187    0.327306582454   -0.010551797455
 H    2.927261611438    0.947267122209   -0.092539819877
 N    3.651966077837   -1.453006272740   -0.082063940348
 H    4.306502283169   -0.921203048340    0.485576836382
 H    3.730771165228   -2.453706416675    0.079519397641
 C    0.864160743870    1.013340285985    0.002401989222
 O    0.836580374765    2.241513370762   -0.001686139206
 C   -0.208624382106    0.039646896711    0.008603187162
 N   -1.579697683875    0.225977942024    0.008528002446
 C   -2.073221178386   -1.012625072021   -0.001802097219
 H   -3.130719091654   -1.266771693853   -0.004748741645
 H   -1.212609354134   -2.987619287117   -0.016503640044
 K   -2.436772803466    1.694078800213    0.018632930075
