17

 N   -0.229438360321   -3.450848057349   -0.017960793423
 C    0.980749706523   -2.795641853673   -0.013999169455
 N    2.214162120826   -3.394319548135   -0.001960884550
 C    3.184585320882   -2.504143406524   -0.013833341523
 N    2.981508483469   -1.142505273010   -0.020668501865
 H    3.785335608720   -0.522544733255   -0.102656524287
 N    4.510040075119   -2.922818128204   -0.092180644758
 H    5.164576280451   -2.391014903804    0.475460131972
 H    4.588845162510   -3.923518272139    0.069402693231
 C    1.722234741152   -0.456471569479   -0.007714715188
 O    1.694654372047    0.771701515298   -0.011802843616
 C    0.649449615176   -1.430164958753   -0.001513517248
 N   -0.721623686593   -1.243833913440   -0.001588701964
 C   -1.215147181104   -2.482436927485   -0.011918801629
 H   -2.272645094372   -2.736583549317   -0.014865446055
 H   -0.354535356852   -4.457431142581   -0.026620344454
 K   -5.763242037129    7.392053487673    0.057852048791
