17

 N   -1.046159393878   -2.051870508172   -0.008331641033
 C    0.164028672966   -1.396664304496   -0.004370017065
 N    1.397441087269   -1.995341998958    0.007668267840
 C    2.367864287325   -1.105165857347   -0.004204189133
 N    2.164787449912    0.256472276167   -0.011039349475
 H    2.968614575163    0.876432815922   -0.093027371897
 N    3.693319041562   -1.523840579027   -0.082551492368
 H    4.347855246894   -0.992037354627    0.485089284362
 H    3.772124128953   -2.524540722962    0.079031845621
 C    0.905513707595    0.942505979698    0.001914437202
 O    0.877933338490    2.170679064475   -0.002173691226
 C   -0.167271418381   -0.031187409576    0.008115635142
 N   -1.538344720150    0.155143635737    0.008040450426
 C   -2.031868214661   -1.083459378308   -0.002289649239
 H   -3.089366127929   -1.337606000140   -0.005236293665
 H   -1.171256390409   -3.058453593404   -0.016991192064
 K   -2.597084573763    1.968679989970    0.020523008085
