17

 N   -1.015144671085   -2.104996237888   -0.008697305047
 C    0.195043395759   -1.449790034212   -0.004735681079
 N    1.428455810062   -2.048467728674    0.007302603826
 C    2.398879010118   -1.158291587063   -0.004569853147
 N    2.195802172705    0.203346546451   -0.011405013489
 H    2.999629297956    0.823307086206   -0.093393035911
 N    3.724333764355   -1.576966308743   -0.082917156382
 H    4.378869969687   -1.045163084343    0.484723620348
 H    3.803138851746   -2.577666452678    0.078666181607
 C    0.936528430388    0.889380249982    0.001548773188
 O    0.908948061283    2.117553334759   -0.002539355240
 C   -0.136256695588   -0.084313139292    0.007749971128
 N   -1.507329997357    0.102017906021    0.007674786412
 C   -2.000853491868   -1.136585108024   -0.002655313253
 H   -3.058351405136   -1.390731729856   -0.005601957679
 H   -1.140241667616   -3.111579323120   -0.017356856078
 K   -2.717318401485    2.174630882288    0.021940566593
