17

 N   -0.994468189223   -2.140413391031   -0.008941081057
 C    0.215719877621   -1.485207187355   -0.004979457089
 N    1.449132291924   -2.083884881817    0.007058827816
 C    2.419555491980   -1.193708740206   -0.004813629157
 N    2.216478654567    0.167929393308   -0.011648789499
 H    3.020305779818    0.787889933063   -0.093636811921
 N    3.745010246217   -1.612383461886   -0.083160932392
 H    4.399546451549   -1.080580237486    0.484479844338
 H    3.823815333608   -2.613083605821    0.078422405597
 C    0.957204912250    0.853963096839    0.001304997178
 O    0.929624543145    2.082136181616   -0.002783131250
 C   -0.115580213726   -0.119730292435    0.007506195118
 N   -1.486653515495    0.066600752878    0.007431010402
 C   -1.980177010006   -1.172002261167   -0.002899089263
 H   -3.037674923274   -1.426148882999   -0.005845733689
 H   -1.119565185754   -3.146996476263   -0.017600632088
 K   -2.797474286634    2.311931477167    0.022885605598
