17

 N   -0.984129948292   -2.158121967603   -0.009062969062
 C    0.226058118552   -1.502915763927   -0.005101345094
 N    1.459470532855   -2.101593458389    0.006936939811
 C    2.429893732911   -1.211417316778   -0.004935517162
 N    2.226816895498    0.150220816736   -0.011770677504
 H    3.030644020749    0.770181356491   -0.093758699926
 N    3.755348487148   -1.630092038458   -0.083282820397
 H    4.409884692480   -1.098288814058    0.484357956333
 H    3.834153574539   -2.630792182393    0.078300517592
 C    0.967543153181    0.836254520267    0.001183109173
 O    0.939962784076    2.064427605044   -0.002905019255
 C   -0.105241972795   -0.137438869007    0.007384307113
 N   -1.476315274564    0.048892176306    0.007309122397
 C   -1.969838769075   -1.189710837739   -0.003020977268
 H   -3.027336682343   -1.443857459571   -0.005967621694
 H   -1.109226944823   -3.164705052835   -0.017722520093
 K   -2.837552229208    2.380581774606    0.023358125101
