17

 N   -0.953115225498   -2.211247697319   -0.009428633077
 C    0.257072841346   -1.556041493643   -0.005467009109
 N    1.490485255649   -2.154719188105    0.006571275796
 C    2.460908455705   -1.264543046494   -0.005301181177
 N    2.257831618292    0.097095087020   -0.012136341519
 H    3.061658743543    0.717055626775   -0.094124363941
 N    3.786363209942   -1.683217768174   -0.083648484412
 H    4.440899415274   -1.151414543774    0.483992292318
 H    3.865168297333   -2.683917912109    0.077934853577
 C    0.998557875975    0.783128790551    0.000817445158
 O    0.970977506870    2.011301875328   -0.003270683270
 C   -0.074227250001   -0.190564598723    0.007018643098
 N   -1.445300551770   -0.004233553410    0.006943458382
 C   -1.938824046281   -1.242836567455   -0.003386641283
 H   -2.996321959549   -1.496983189287   -0.006333285709
 H   -1.078212222029   -3.217830782551   -0.018088184108
 K   -2.957786056931    2.586532666924    0.024775683609
