17

 N   -0.932438743636   -2.246664850463   -0.009672409087
 C    0.277749323208   -1.591458646787   -0.005710785119
 N    1.511161737511   -2.190136341249    0.006327499786
 C    2.481584937567   -1.299960199638   -0.005544957187
 N    2.278508100154    0.061677933876   -0.012380117529
 H    3.082335225405    0.681638473631   -0.094368139951
 N    3.807039691804   -1.718634921318   -0.083892260422
 H    4.461575897136   -1.186831696918    0.483748516308
 H    3.885844779195   -2.719335065253    0.077691077567
 C    1.019234357837    0.747711637407    0.000573669148
 O    0.991653988732    1.975884722184   -0.003514459280
 C   -0.053550768139   -0.225981751867    0.006774867088
 N   -1.424624069908   -0.039650706554    0.006699682372
 C   -1.918147564419   -1.278253720599   -0.003630417293
 H   -2.975645477687   -1.532400342431   -0.006577061719
 H   -1.057535740167   -3.253247935695   -0.018331960118
 K   -3.037941942079    2.723833261802    0.025720722614
