17

 N   -0.911762261774   -2.282082003606   -0.009916185097
 C    0.298425805070   -1.626875799930   -0.005954561129
 N    1.531838219373   -2.225553494392    0.006083723776
 C    2.502261419429   -1.335377352781   -0.005788733197
 N    2.299184582016    0.026260780733   -0.012623893539
 H    3.103011707267    0.646221320488   -0.094611915961
 N    3.827716173666   -1.754052074461   -0.084136036432
 H    4.482252378998   -1.222248850061    0.483504740298
 H    3.906521261057   -2.754752218396    0.077447301557
 C    1.039910839699    0.712294484264    0.000329893138
 O    1.012330470594    1.940467569041   -0.003758235290
 C   -0.032874286277   -0.261398905010    0.006531091078
 N   -1.403947588046   -0.075067859697    0.006455906362
 C   -1.897471082557   -1.313670873742   -0.003874193303
 H   -2.954968995825   -1.567817495574   -0.006820837729
 H   -1.036859258305   -3.288665088838   -0.018575736128
 K   -3.118097827228    2.861133856681    0.026665761619
