17

 N   -0.870409298049   -2.352916309894   -0.010403737117
 C    0.339778768795   -1.697710106218   -0.006442113149
 N    1.573191183098   -2.296387800680    0.005596171756
 C    2.543614383154   -1.406211659069   -0.006276285217
 N    2.340537545741   -0.044573525555   -0.013111445559
 H    3.144364670992    0.575387014200   -0.095099467981
 N    3.869069137391   -1.824886380749   -0.084623588452
 H    4.523605342723   -1.293083156349    0.483017188278
 H    3.947874224782   -2.825586524684    0.076959749537
 C    1.081263803424    0.641460177976   -0.000157658882
 O    1.053683434319    1.869633262753   -0.004245787310
 C    0.008478677448   -0.332233211298    0.006043539058
 N   -1.362594624321   -0.145902165985    0.005968354342
 C   -1.856118118832   -1.384505180030   -0.004361745323
 H   -2.913616032100   -1.638651801862   -0.007308389749
 H   -0.995506294580   -3.359499395126   -0.019063288148
 K   -3.278409597525    3.135735046438    0.028555839630
