17

 N   -0.860071057118   -2.370624886466   -0.010525625122
 C    0.350117009726   -1.715418682790   -0.006564001154
 N    1.583529424029   -2.314096377252    0.005474283751
 C    2.553952624085   -1.423920235641   -0.006398173222
 N    2.350875786672   -0.062282102127   -0.013233333564
 H    3.154702911923    0.557678437628   -0.095221355986
 N    3.879407378322   -1.842594957321   -0.084745476457
 H    4.533943583654   -1.310791732921    0.482895300273
 H    3.958212465713   -2.843295101256    0.076837861532
 C    1.091602044355    0.623751601404   -0.000279546887
 O    1.064021675250    1.851924686181   -0.004367675315
 C    0.018816918379   -0.349941787870    0.005921651053
 N   -1.352256383390   -0.163610742557    0.005846466337
 C   -1.845779877901   -1.402213756602   -0.004483633328
 H   -2.903277791169   -1.656360378434   -0.007430277754
 H   -0.985168053649   -3.377207971698   -0.019185176153
 K   -3.318487540099    3.204385343877    0.029028359132
