17

 N   -0.849732816187   -2.388333463037   -0.010647513126
 C    0.360455250657   -1.733127259361   -0.006685889158
 N    1.593867664960   -2.331804953823    0.005352395747
 C    2.564290865016   -1.441628812212   -0.006520061226
 N    2.361214027603   -0.079990678698   -0.013355221568
 H    3.165041152854    0.539969861057   -0.095343243990
 N    3.889745619253   -1.860303533892   -0.084867364461
 H    4.544281824585   -1.328500309492    0.482773412269
 H    3.968550706644   -2.861003677827    0.076715973528
 C    1.101940285286    0.606043024833   -0.000401434891
 O    1.074359916181    1.834216109610   -0.004489563319
 C    0.029155159310   -0.367650364441    0.005799763049
 N   -1.341918142459   -0.181319319128    0.005724578333
 C   -1.835441636970   -1.419922333173   -0.004605521332
 H   -2.892939550238   -1.674068955005   -0.007552165758
 H   -0.974829812718   -3.394916548269   -0.019307064157
 K   -3.358565482673    3.273035641317    0.029500878635
