17

 N   -0.818718093394   -2.441459192753   -0.011013177141
 C    0.391469973450   -1.786252989077   -0.007051553173
 N    1.624882387753   -2.384930683539    0.004986731732
 C    2.595305587809   -1.494754541928   -0.006885725241
 N    2.392228750396   -0.133116408414   -0.013720885583
 H    3.196055875647    0.486844131341   -0.095708908005
 N    3.920760342046   -1.913429263608   -0.085233028476
 H    4.575296547378   -1.381626039208    0.482407748254
 H    3.999565429437   -2.914129407543    0.076350309513
 C    1.132955008079    0.552917295117   -0.000767098906
 O    1.105374638974    1.781090379894   -0.004855227334
 C    0.060169882103   -0.420776094157    0.005434099034
 N   -1.310903419666   -0.234445048844    0.005358914318
 C   -1.804426914177   -1.473048062889   -0.004971185347
 H   -2.861924827445   -1.727194684721   -0.007917829773
 H   -0.943815089925   -3.448042277985   -0.019672728172
 K   -3.478799310396    3.478986533634    0.030918437143
