17

 N   -0.808379852463   -2.459167769325   -0.011135065146
 C    0.401808214381   -1.803961565649   -0.007173441178
 N    1.635220628684   -2.402639260111    0.004864843727
 C    2.605643828740   -1.512463118500   -0.007007613246
 N    2.402566991327   -0.150824984986   -0.013842773588
 H    3.206394116578    0.469135554769   -0.095830796010
 N    3.931098582977   -1.931137840180   -0.085354916481
 H    4.585634788309   -1.399334615780    0.482285860249
 H    4.009903670368   -2.931837984115    0.076228421508
 C    1.143293249010    0.535208718545   -0.000888986911
 O    1.115712879905    1.763381803322   -0.004977115339
 C    0.070508123034   -0.438484670729    0.005312211029
 N   -1.300565178735   -0.252153625416    0.005237026313
 C   -1.794088673246   -1.490756639461   -0.005093073352
 H   -2.851586586514   -1.744903261293   -0.008039717778
 H   -0.933476848994   -3.465750854557   -0.019794616177
 K   -3.518877252970    3.547636831074    0.031390956645
