17

 N   -0.798041611532   -2.476876345897   -0.011256953151
 C    0.412146455312   -1.821670142221   -0.007295329183
 N    1.645558869615   -2.420347836683    0.004742955722
 C    2.615982069671   -1.530171695072   -0.007129501251
 N    2.412905232258   -0.168533561558   -0.013964661593
 H    3.216732357509    0.451426978197   -0.095952684015
 N    3.941436823908   -1.948846416752   -0.085476804486
 H    4.595973029240   -1.417043192352    0.482163972244
 H    4.020241911299   -2.949546560687    0.076106533503
 C    1.153631489941    0.517500141973   -0.001010874916
 O    1.126051120836    1.745673226750   -0.005099003344
 C    0.080846363965   -0.456193247301    0.005190323024
 N   -1.290226937804   -0.269862201988    0.005115138308
 C   -1.783750432315   -1.508465216033   -0.005214961357
 H   -2.841248345583   -1.762611837865   -0.008161605783
 H   -0.923138608063   -3.483459431129   -0.019916504182
 K   -3.558955195545    3.616287128513    0.031863476148
