17

 N   -0.767026888739   -2.530002075612   -0.011622617166
 C    0.443161178105   -1.874795871936   -0.007660993198
 N    1.676573592408   -2.473473566398    0.004377291707
 C    2.646996792464   -1.583297424787   -0.007495165266
 N    2.443919955051   -0.221659291273   -0.014330325608
 H    3.247747080302    0.398301248482   -0.096318348030
 N    3.972451546701   -2.001972146467   -0.085842468501
 H    4.626987752033   -1.470168922067    0.481798308229
 H    4.051256634092   -3.002672290402    0.075740869488
 C    1.184646212734    0.464374412258   -0.001376538931
 O    1.157065843629    1.692547497035   -0.005464667359
 C    0.111861086758   -0.509318977016    0.004824659009
 N   -1.259212215011   -0.322987931703    0.004749474293
 C   -1.752735709522   -1.561590945748   -0.005580625372
 H   -2.810233622790   -1.815737567580   -0.008527269798
 H   -0.892123885270   -3.536585160844   -0.020282168197
 K   -3.679189023267    3.822238020831    0.033281034656
