17

 N   -0.746350406876   -2.565419228756   -0.011866393176
 C    0.463837659968   -1.910213025080   -0.007904769208
 N    1.697250074271   -2.508890719542    0.004133515697
 C    2.667673274327   -1.618714577931   -0.007738941276
 N    2.464596436914   -0.257076444417   -0.014574101618
 H    3.268423562165    0.362884095338   -0.096562124040
 N    3.993128028564   -2.037389299611   -0.086086244511
 H    4.647664233896   -1.505586075211    0.481554532219
 H    4.071933115955   -3.038089443546    0.075497093478
 C    1.205322694597    0.428957259114   -0.001620314941
 O    1.177742325492    1.657130343891   -0.005708443369
 C    0.132537568621   -0.544736130160    0.004580882999
 N   -1.238535733148   -0.358405084847    0.004505698283
 C   -1.732059227659   -1.597008098892   -0.005824401382
 H   -2.789557140927   -1.851154720724   -0.008771045808
 H   -0.871447403407   -3.572002313988   -0.020525944207
 K   -3.759344908416    3.959538615709    0.034226073661
