17

 N   -0.684320961290   -2.671670688187   -0.012597721206
 C    0.525867105554   -2.016464484511   -0.008636097238
 N    1.759279519857   -2.615142178973    0.003402187667
 C    2.729702719913   -1.724966037362   -0.008470269306
 N    2.526625882500   -0.363327903848   -0.015305429648
 H    3.330453007751    0.256632635907   -0.097293452070
 N    4.055157474150   -2.143640759042   -0.086817572541
 H    4.709693679482   -1.611837534642    0.480823204189
 H    4.133962561541   -3.144340902977    0.074765765448
 C    1.267352140183    0.322705799683   -0.002351642971
 O    1.239771771078    1.550878884460   -0.006439771399
 C    0.194567014207   -0.650987589591    0.003849554969
 N   -1.176506287562   -0.464656544278    0.003774370253
 C   -1.670029782073   -1.703259558323   -0.006555729412
 H   -2.727527695341   -1.957406180155   -0.009502373838
 H   -0.809417957821   -3.678253773419   -0.021257272237
 K   -3.999812563862    4.371440400345    0.037061190677
