17

 N   -0.673982720359   -2.689379264759   -0.012719609211
 C    0.536205346485   -2.034173061083   -0.008757985243
 N    1.769617760788   -2.632850755545    0.003280299662
 C    2.740040960844   -1.742674613934   -0.008592157311
 N    2.536964123431   -0.381036480420   -0.015427317653
 H    3.340791248682    0.238924059335   -0.097415340075
 N    4.065495715081   -2.161349335614   -0.086939460546
 H    4.720031920413   -1.629546111214    0.480701316184
 H    4.144300802472   -3.162049479549    0.074643877443
 C    1.277690381114    0.304997223111   -0.002473530976
 O    1.250110012009    1.533170307888   -0.006561659404
 C    0.204905255138   -0.668696166163    0.003727666964
 N   -1.166168046631   -0.482365120850    0.003652482248
 C   -1.659691541142   -1.720968134895   -0.006677617417
 H   -2.717189454410   -1.975114756727   -0.009624261843
 H   -0.799079716890   -3.695962349991   -0.021379160242
 K   -4.039890506436    4.440090697784    0.037533710179
