17

 N   -0.632629756634   -2.760213571046   -0.013207161230
 C    0.577558310210   -2.105007367370   -0.009245537262
 N    1.810970724513   -2.703685061832    0.002792747643
 C    2.781393924569   -1.813508920221   -0.009079709330
 N    2.578317087156   -0.451870786707   -0.015914869672
 H    3.382144212407    0.168089753048   -0.097902892094
 N    4.106848678806   -2.232183641901   -0.087427012565
 H    4.761384884138   -1.700380417501    0.480213764165
 H    4.185653766197   -3.232883785836    0.074156325424
 C    1.319043344839    0.234162916824   -0.002961082995
 O    1.291462975734    1.462336001601   -0.007049211423
 C    0.246258218863   -0.739530472450    0.003240114945
 N   -1.124815082906   -0.553199427137    0.003164930229
 C   -1.618338577417   -1.791802441182   -0.007165169436
 H   -2.675836490685   -2.045949063014   -0.010111813862
 H   -0.757726753165   -3.766796656278   -0.021866712261
 K   -4.200202276733    4.714691887541    0.039423788190
