17

 N   -0.601615033841   -2.813339300762   -0.013572825245
 C    0.608573033003   -2.158133097086   -0.009611201277
 N    1.841985447306   -2.756810791548    0.002427083628
 C    2.812408647362   -1.866634649937   -0.009445373345
 N    2.609331809949   -0.504996516423   -0.016280533687
 H    3.413158935200    0.114964023332   -0.098268556109
 N    4.137863401599   -2.285309371617   -0.087792676580
 H    4.792399606931   -1.753506147217    0.479848100150
 H    4.216668488990   -3.286009515552    0.073790661409
 C    1.350058067632    0.181037187108   -0.003326747010
 O    1.322477698527    1.409210271885   -0.007414875438
 C    0.277272941656   -0.792656202166    0.002874450930
 N   -1.093800360113   -0.606325156853    0.002799266214
 C   -1.587323854624   -1.844928170898   -0.007530833451
 H   -2.644821767892   -2.099074792730   -0.010477477877
 H   -0.726712030372   -3.819922385994   -0.022232376276
 K   -4.320436104456    4.920642779859    0.040841346697
