17

 N   -0.591276792910   -2.831047877334   -0.013694713250
 C    0.618911273934   -2.175841673658   -0.009733089282
 N    1.852323688237   -2.774519368120    0.002305195623
 C    2.822746888293   -1.884343226509   -0.009567261350
 N    2.619670050880   -0.522705092995   -0.016402421692
 H    3.423497176131    0.097255446760   -0.098390444114
 N    4.148201642530   -2.303017948189   -0.087914564585
 H    4.802737847862   -1.771214723789    0.479726212145
 H    4.227006729921   -3.303718092124    0.073668773404
 C    1.360396308563    0.163328610536   -0.003448635015
 O    1.332815939458    1.391501695313   -0.007536763443
 C    0.287611182587   -0.810364778738    0.002752562925
 N   -1.083462119182   -0.624033733425    0.002677378209
 C   -1.576985613693   -1.862636747470   -0.007652721456
 H   -2.634483526961   -2.116783369302   -0.010599365882
 H   -0.716373789441   -3.837630962566   -0.022354264281
 K   -4.360514047030    4.989293077298    0.041313866200
