17

 N   -0.477556142668   -3.025842219624   -0.015035481304
 C    0.732631924176   -2.370636015948   -0.011073857336
 N    1.966044338479   -2.969313710410    0.000964427569
 C    2.936467538535   -2.079137568799   -0.010908029404
 N    2.733390701122   -0.717499435285   -0.017743189746
 H    3.537217826373   -0.097538895530   -0.099731212168
 N    4.261922292772   -2.497812290479   -0.089255332639
 H    4.916458498104   -1.966009066079    0.478385444091
 H    4.340727380163   -3.498512434414    0.072328005350
 C    1.474116958805   -0.031465731754   -0.004789403069
 O    1.446536589700    1.196707353023   -0.008877531497
 C    0.401331832829   -1.005159121028    0.001411794871
 N   -0.969741468940   -0.818828075715    0.001336610155
 C   -1.463264963451   -2.057431089760   -0.008993489510
 H   -2.520762876719   -2.311577711592   -0.011940133936
 H   -0.602653139199   -4.032425304856   -0.023695032335
 K   -4.801371415347    5.744446349130    0.046511580729
