17

 N   -0.467217901737   -3.043550796196   -0.015157369309
 C    0.742970165107   -2.388344592520   -0.011195745341
 N    1.976382579410   -2.987022286982    0.000842539564
 C    2.946805779466   -2.096846145371   -0.011029917409
 N    2.743728942053   -0.735208011857   -0.017865077751
 H    3.547556067304   -0.115247472102   -0.099853100173
 N    4.272260533703   -2.515520867051   -0.089377220644
 H    4.926796739035   -1.983717642651    0.478263556086
 H    4.351065621094   -3.516221010986    0.072206117345
 C    1.484455199736   -0.049174308326   -0.004911291074
 O    1.456874830631    1.178998776451   -0.008999419502
 C    0.411670073760   -1.022867697600    0.001289906866
 N   -0.959403228009   -0.836536652287    0.001214722150
 C   -1.452926722520   -2.075139666332   -0.009115377515
 H   -2.510424635788   -2.329286288164   -0.012062021941
 H   -0.592314898268   -4.050133881428   -0.023816920340
 K   -4.841449357921    5.813096646570    0.046984100231
