17

 N   -0.446541419874   -3.078967949340   -0.015401145319
 C    0.763646646970   -2.423761745664   -0.011439521351
 N    1.997059061273   -3.022439440126    0.000598763554
 C    2.967482261329   -2.132263298515   -0.011273693419
 N    2.764405423916   -0.770625165001   -0.018108853761
 H    3.568232549167   -0.150664625246   -0.100096876183
 N    4.292937015566   -2.550938020195   -0.089620996654
 H    4.947473220898   -2.019134795795    0.478019780076
 H    4.371742102957   -3.551638164130    0.071962341335
 C    1.505131681599   -0.084591461470   -0.005155067084
 O    1.477551312494    1.143581623307   -0.009243195512
 C    0.432346555623   -1.058284850744    0.001046130856
 N   -0.938726746146   -0.871953805431    0.000970946140
 C   -1.432250240657   -2.110556819476   -0.009359153525
 H   -2.489748153925   -2.364703441308   -0.012305797951
 H   -0.571638416405   -4.085551034572   -0.024060696350
 K   -4.921605243069    5.950397241448    0.047929139237
