17

 N   -0.363835492426   -3.220636561915   -0.016376249359
 C    0.846352574418   -2.565430358239   -0.012414625391
 N    2.079764988721   -3.164108052701   -0.000376340486
 C    3.050188188777   -2.273931911090   -0.012248797459
 N    2.847111351364   -0.912293777576   -0.019083957801
 H    3.650938476615   -0.292333237821   -0.101071980223
 N    4.375642943014   -2.692606632770   -0.090596100694
 H    5.030179148346   -2.160803408370    0.477044676036
 H    4.454448030405   -3.693306776705    0.070987237295
 C    1.587837609047   -0.226260074045   -0.006130171124
 O    1.560257239942    1.001913010732   -0.010218299552
 C    0.515052483071   -1.199953463319    0.000071026816
 N   -0.856020818698   -1.013622418006   -0.000004157900
 C   -1.349544313209   -2.252225432051   -0.010334257565
 H   -2.407042226477   -2.506372053883   -0.013280901991
 H   -0.488932488957   -4.227219647147   -0.025035800390
 K   -5.242228783663    6.499599620962    0.051709295258
