17

 N   -0.353497251495   -3.238345138487   -0.016498137364
 C    0.856690815349   -2.583138934811   -0.012536513396
 N    2.090103229652   -3.181816629273   -0.000498228491
 C    3.060526429708   -2.291640487662   -0.012370685464
 N    2.857449592295   -0.930002354148   -0.019205845806
 H    3.661276717546   -0.310041814393   -0.101193868228
 N    4.385981183945   -2.710315209342   -0.090717988699
 H    5.040517389277   -2.178511984942    0.476922788031
 H    4.464786271336   -3.711015353277    0.070865349290
 C    1.598175849978   -0.243968650617   -0.006252059129
 O    1.570595480873    0.984204434160   -0.010340187557
 C    0.525390724002   -1.217662039891   -0.000050861189
 N   -0.845682577767   -1.031330994578   -0.000126045905
 C   -1.339206072278   -2.269934008623   -0.010456145570
 H   -2.396703985546   -2.524080630455   -0.013402789996
 H   -0.478594248026   -4.244928223719   -0.025157688395
 K   -5.282306726238    6.568249918402    0.052181814760
