17

 N   -0.343159010564   -3.256053715058   -0.016620025369
 C    0.867029056280   -2.600847511382   -0.012658401401
 N    2.100441470583   -3.199525205844   -0.000620116496
 C    3.070864670639   -2.309349064233   -0.012492573469
 N    2.867787833226   -0.947710930719   -0.019327733811
 H    3.671614958477   -0.327750390964   -0.101315756233
 N    4.396319424876   -2.728023785913   -0.090839876704
 H    5.050855630208   -2.196220561513    0.476800900026
 H    4.475124512267   -3.728723929848    0.070743461285
 C    1.608514090909   -0.261677227188   -0.006373947134
 O    1.580933721804    0.966495857589   -0.010462075562
 C    0.535728964933   -1.235370616462   -0.000172749194
 N   -0.835344336836   -1.049039571149   -0.000247933910
 C   -1.328867831347   -2.287642585194   -0.010578033575
 H   -2.386365744615   -2.541789207026   -0.013524678001
 H   -0.468256007095   -4.262636800290   -0.025279576400
 K   -5.322384668812    6.636900215841    0.052654334263
