17

 N   -0.301806046839   -3.326888021346   -0.017107577389
 C    0.908382020005   -2.671681817670   -0.013145953421
 N    2.141794434308   -3.270359512132   -0.001107668516
 C    3.112217634364   -2.380183370521   -0.012980125489
 N    2.909140796951   -1.018545237007   -0.019815285831
 H    3.712967922202   -0.398584697252   -0.101803308253
 N    4.437672388601   -2.798858092201   -0.091327428724
 H    5.092208593933   -2.267054867801    0.476313348006
 H    4.516477475992   -3.799558236136    0.070255909265
 C    1.649867054634   -0.332511533476   -0.006861499154
 O    1.622286685529    0.895661551301   -0.010949627582
 C    0.577081928658   -1.306204922750   -0.000660301214
 N   -0.793991373111   -1.119873877437   -0.000735485930
 C   -1.287514867622   -2.358476891482   -0.011065585595
 H   -2.345012780890   -2.612623513314   -0.014012230021
 H   -0.426903043370   -4.333471106578   -0.025767128420
 K   -5.482696439109    6.911501405598    0.054544412273
