17

 N   -0.291467805908   -3.344596597918   -0.017229465393
 C    0.918720260936   -2.689390394242   -0.013267841425
 N    2.152132675239   -3.288068088704   -0.001229556520
 C    3.122555875295   -2.397891947093   -0.013102013493
 N    2.919479037882   -1.036253813579   -0.019937173835
 H    3.723306163133   -0.416293273824   -0.101925196257
 N    4.448010629532   -2.816566668773   -0.091449316728
 H    5.102546834864   -2.284763444373    0.476191460002
 H    4.526815716923   -3.817266812708    0.070134021261
 C    1.660205295565   -0.350220110048   -0.006983387158
 O    1.632624926460    0.877952974729   -0.011071515586
 C    0.587420169589   -1.323913499322   -0.000782189218
 N   -0.783653132180   -1.137582454009   -0.000857373934
 C   -1.277176626691   -2.376185468054   -0.011187473599
 H   -2.334674539959   -2.630332089886   -0.014134118025
 H   -0.416564802439   -4.351179683150   -0.025889016424
 K   -5.522774381683    6.980151703037    0.055016931776
