17

 N   -0.250114842184   -3.415430904205   -0.017717017413
 C    0.960073224660   -2.760224700529   -0.013755393445
 N    2.193485638963   -3.358902394991   -0.001717108540
 C    3.163908839019   -2.468726253380   -0.013589565513
 N    2.960832001606   -1.107088119866   -0.020424725855
 H    3.764659126857   -0.487127580111   -0.102412748277
 N    4.489363593256   -2.887400975060   -0.091936868748
 H    5.143899798588   -2.355597750660    0.475703907982
 H    4.568168680647   -3.888101118995    0.069646469241
 C    1.701558259289   -0.421054416335   -0.007470939178
 O    1.673977890184    0.807118668442   -0.011559067606
 C    0.628773133313   -1.394747805609   -0.001269741238
 N   -0.742300168456   -1.208416760296   -0.001344925954
 C   -1.235823662967   -2.447019774341   -0.011675025619
 H   -2.293321576235   -2.701166396173   -0.014621670045
 H   -0.375211838715   -4.422013989437   -0.026376568444
 K   -5.683086151980    7.254752892794    0.056907009786
