17

 N   -0.239776601253   -3.433139480777   -0.017838905418
 C    0.970411465591   -2.777933277101   -0.013877281450
 N    2.203823879894   -3.376610971563   -0.001838996545
 C    3.174247079950   -2.486434829952   -0.013711453518
 N    2.971170242537   -1.124796696438   -0.020546613860
 H    3.774997367788   -0.504836156683   -0.102534636282
 N    4.499701834187   -2.905109551632   -0.092058756753
 H    5.154238039519   -2.373306327232    0.475582019977
 H    4.578506921578   -3.905809695567    0.069524581236
 C    1.711896500220   -0.438762992907   -0.007592827183
 O    1.684316131115    0.789410091870   -0.011680955611
 C    0.639111374244   -1.412456382181   -0.001391629243
 N   -0.731961927525   -1.226125336868   -0.001466813959
 C   -1.225485422036   -2.464728350913   -0.011796913624
 H   -2.282983335304   -2.718874972745   -0.014743558050
 H   -0.364873597784   -4.439722566009   -0.026498456449
 K   -5.723164094555    7.323403190234    0.057379529289
