14

 N    0.698755544238    0.530278969852   -0.477813722476
 C   -0.386691398665    1.353037939680   -0.474671851255
 H   -0.195170558783    2.428094912179   -0.477176449797
 C    0.616891823556   -0.888991491874   -0.476796053592
 O    1.660635070874   -1.542233381935   -0.479276894904
 N   -0.656946265125   -1.431131123467   -0.466182819462
 C   -1.714632377938   -0.629779092592   -0.468675864290
 N   -2.946625494394   -1.233578121672   -0.514081687499
 H   -2.955559962715   -2.233272008183   -0.344511078934
 H   -3.765203238597   -0.707149802272   -0.239181562702
 C   -1.646050379504    0.811597746603   -0.472159297956
 H   -2.534574095189    1.442915337847   -0.481641251983
 H    1.642695667165    0.904927182294   -0.481119618704
RB    0.701308228262    0.529446107494    0.622183000313
