14

 N    0.698654986405    0.530311778783   -0.521145872424
 C   -0.386791956498    1.353070748611   -0.518004001203
 H   -0.195271116616    2.428127721110   -0.520508599745
 C    0.616791265723   -0.888958682943   -0.520128203540
 O    1.660534513041   -1.542200573004   -0.522609044852
 N   -0.657046822958   -1.431098314536   -0.509514969410
 C   -1.714732935771   -0.629746283661   -0.512008014238
 N   -2.946726052227   -1.233545312741   -0.557413837447
 H   -2.955660520548   -2.233239199252   -0.387843228882
 H   -3.765303796430   -0.707116993341   -0.282513712650
 C   -1.646150937337    0.811630555534   -0.515491447904
 H   -2.534674653022    1.442948146778   -0.524973401931
 H    1.642595109332    0.904959991225   -0.524451768652
RB    0.701439732613    0.529403201665    0.678850552436
