14

 N    0.698252755073    0.530443014507   -0.694474472218
 C   -0.387194187830    1.353201984335   -0.691332600997
 H   -0.195673347948    2.428258956834   -0.693837199539
 C    0.616389034391   -0.888827447219   -0.693456803334
 O    1.660132281709   -1.542069337280   -0.695937644646
 N   -0.657449054290   -1.430967078812   -0.682843569204
 C   -1.715135167103   -0.629615047937   -0.685336614032
 N   -2.947128283559   -1.233414077017   -0.730742437241
 H   -2.956062751880   -2.233107963528   -0.561171828676
 H   -3.765706027762   -0.706985757617   -0.455842312444
 C   -1.646553168669    0.811761791258   -0.688820047698
 H   -2.535076884354    1.443079382502   -0.698302001725
 H    1.642192878000    0.905091226949   -0.697780368446
RB    0.701965750017    0.529231578349    0.905520760928
