14

 N    0.698051639406    0.530508632370   -0.781138772116
 C   -0.387395303497    1.353267602198   -0.777996900895
 H   -0.195874463615    2.428324574697   -0.780501499437
 C    0.616187918724   -0.888761829356   -0.780121103232
 O    1.659931166042   -1.542003719417   -0.782601944544
 N   -0.657650169957   -1.430901460949   -0.769507869102
 C   -1.715336282770   -0.629549430074   -0.772000913930
 N   -2.947329399226   -1.233348459154   -0.817406737139
 H   -2.956263867547   -2.233042345665   -0.647836128574
 H   -3.765907143429   -0.706920139754   -0.542506612342
 C   -1.646754284336    0.811827409121   -0.775484347596
 H   -2.535278000021    1.443145000365   -0.784966301623
 H    1.641991762333    0.905156844812   -0.784444668344
RB    0.702228758719    0.529145766692    1.018855865174
