14

 N    0.697951081573    0.530541441301   -0.824470922064
 C   -0.387495861330    1.353300411129   -0.821329050843
 H   -0.195975021448    2.428357383628   -0.823833649385
 C    0.616087360891   -0.888729020425   -0.823453253180
 O    1.659830608209   -1.541970910486   -0.825934094492
 N   -0.657750727790   -1.430868652018   -0.812840019050
 C   -1.715436840603   -0.629516621143   -0.815333063878
 N   -2.947429957059   -1.233315650223   -0.860738887087
 H   -2.956364425380   -2.233009536734   -0.691168278522
 H   -3.766007701262   -0.706887330823   -0.585838762290
 C   -1.646854842169    0.811860218052   -0.818816497544
 H   -2.535378557854    1.443177809296   -0.828298451571
 H    1.641891204500    0.905189653743   -0.827776818292
RB    0.702360263069    0.529102860863    1.075523417297
