14

 N    0.697247176741    0.530771103818   -1.127795971704
 C   -0.388199766162    1.353530073646   -1.124654100483
 H   -0.196678926280    2.428587046145   -1.127158699025
 C    0.615383456059   -0.888499357908   -1.126778302820
 O    1.659126703377   -1.541741247969   -1.129259144132
 N   -0.658454632622   -1.430638989501   -1.116165068690
 C   -1.716140745435   -0.629286958626   -1.118658113518
 N   -2.948133861891   -1.233085987706   -1.164063936727
 H   -2.957068330212   -2.232779874217   -0.994493328162
 H   -3.766711606094   -0.706657668306   -0.889163811930
 C   -1.647558747001    0.812089880569   -1.122141547184
 H   -2.536082462686    1.443407471813   -1.131623501211
 H    1.641187299668    0.905419316260   -1.131101867932
RB    0.703280793525    0.528802520061    1.472196282159
