14

 N    0.697146618908    0.530803912749   -1.171128121653
 C   -0.388300323995    1.353562882577   -1.167986250432
 H   -0.196779484113    2.428619855076   -1.170490848974
 C    0.615282898226   -0.888466548977   -1.170110452769
 O    1.659026145544   -1.541708439038   -1.172591294081
 N   -0.658555190455   -1.430606180570   -1.159497218639
 C   -1.716241303268   -0.629254149695   -1.161990263467
 N   -2.948234419724   -1.233053178775   -1.207396086676
 H   -2.957168888045   -2.232747065286   -1.037825478111
 H   -3.766812163927   -0.706624859375   -0.932495961879
 C   -1.647659304834    0.812122689500   -1.165473697133
 H   -2.536183020519    1.443440280744   -1.174955651160
 H    1.641086741835    0.905452125191   -1.174434017881
RB    0.703412297876    0.528759614232    1.528863834282
