14

 N    0.696945503242    0.530869530611   -1.257792421550
 C   -0.388501439661    1.353628500439   -1.254650550329
 H   -0.196980599779    2.428685472938   -1.257155148871
 C    0.615081782560   -0.888400931115   -1.256774752666
 O    1.658825029878   -1.541642821176   -1.259255593978
 N   -0.658756306121   -1.430540562708   -1.246161518536
 C   -1.716442418934   -0.629188531833   -1.248654563364
 N   -2.948435535390   -1.232987560913   -1.294060386573
 H   -2.957370003711   -2.232681447424   -1.124489778008
 H   -3.767013279593   -0.706559241513   -1.019160261776
 C   -1.647860420500    0.812188307362   -1.252137997030
 H   -2.536384136185    1.443505898606   -1.261619951057
 H    1.640885626169    0.905517743053   -1.261098317778
RB    0.703675306578    0.528673802574    1.642198938528
