14

 N    0.696643829742    0.530967957404   -1.387788871395
 C   -0.388803113161    1.353726927232   -1.384647000174
 H   -0.197282273279    2.428783899731   -1.387151598716
 C    0.614780109060   -0.888302504322   -1.386771202511
 O    1.658523356378   -1.541544394383   -1.389252043823
 N   -0.659057979621   -1.430442135915   -1.376157968381
 C   -1.716744092434   -0.629090105040   -1.378651013209
 N   -2.948737208890   -1.232889134120   -1.424056836418
 H   -2.957671677211   -2.232583020631   -1.254486227853
 H   -3.767314953093   -0.706460814720   -1.149156711621
 C   -1.648162094000    0.812286734155   -1.382134446875
 H   -2.536685809685    1.443604325399   -1.391616400902
 H    1.640583952669    0.905616169846   -1.391094767623
RB    0.704069819631    0.528545085088    1.812201594897
