14

 N    0.696442714076    0.531033575266   -1.474453171293
 C   -0.389004228827    1.353792545094   -1.471311300072
 H   -0.197483388945    2.428849517593   -1.473815898614
 C    0.614578993394   -0.888236886460   -1.473435502409
 O    1.658322240712   -1.541478776521   -1.475916343721
 N   -0.659259095287   -1.430376518053   -1.462822268279
 C   -1.716945208100   -0.629024487178   -1.465315313107
 N   -2.948938324556   -1.232823516258   -1.510721136316
 H   -2.957872792877   -2.232517402769   -1.341150527751
 H   -3.767516068759   -0.706395196858   -1.235821011519
 C   -1.648363209666    0.812352352017   -1.468798746773
 H   -2.536886925351    1.443669943261   -1.478280700800
 H    1.640382837003    0.905681787708   -1.477759067521
RB    0.704332828332    0.528459273430    1.925536699143
