14

 N    0.696241598410    0.531099193128   -1.561117471190
 C   -0.389205344493    1.353858162956   -1.557975599969
 H   -0.197684504611    2.428915135455   -1.560480198511
 C    0.614377877728   -0.888171268598   -1.560099802306
 O    1.658121125046   -1.541413158659   -1.562580643618
 N   -0.659460210953   -1.430310900191   -1.549486568176
 C   -1.717146323766   -0.628958869316   -1.551979613004
 N   -2.949139440222   -1.232757898396   -1.597385436213
 H   -2.958073908543   -2.232451784907   -1.427814827648
 H   -3.767717184425   -0.706329578996   -1.322485311416
 C   -1.648564325332    0.812417969879   -1.555463046670
 H   -2.537088041017    1.443735561123   -1.564945000697
 H    1.640181721337    0.905747405570   -1.564423367418
RB    0.704595837034    0.528373461772    2.038871803389
