14

 N    0.696040482743    0.531164810990   -1.647781771087
 C   -0.389406460160    1.353923780818   -1.644639899866
 H   -0.197885620278    2.428980753317   -1.647144498408
 C    0.614176762061   -0.888105650736   -1.646764102203
 O    1.657920009379   -1.541347540797   -1.649244943515
 N   -0.659661326620   -1.430245282329   -1.636150868073
 C   -1.717347439433   -0.628893251454   -1.638643912901
 N   -2.949340555889   -1.232692280534   -1.684049736110
 H   -2.958275024210   -2.232386167045   -1.514479127545
 H   -3.767918300092   -0.706263961134   -1.409149611313
 C   -1.648765440999    0.812483587741   -1.642127346567
 H   -2.537289156684    1.443801178985   -1.651609300594
 H    1.639980605670    0.905813023432   -1.651087667315
RB    0.704858845736    0.528287650115    2.152206907636
