14

 N    0.695839367077    0.531230428852   -1.734446070984
 C   -0.389607575826    1.353989398680   -1.731304199763
 H   -0.198086735944    2.429046371179   -1.733808798305
 C    0.613975646395   -0.888040032874   -1.733428402100
 O    1.657718893713   -1.541281922935   -1.735909243412
 N   -0.659862442286   -1.430179664467   -1.722815167970
 C   -1.717548555099   -0.628827633592   -1.725308212798
 N   -2.949541671555   -1.232626662672   -1.770714036007
 H   -2.958476139876   -2.232320549183   -1.601143427442
 H   -3.768119415758   -0.706198343272   -1.495813911210
 C   -1.648966556665    0.812549205603   -1.728791646464
 H   -2.537490272350    1.443866796847   -1.738273600491
 H    1.639779490004    0.905878641294   -1.737751967212
RB    0.705121854438    0.528201838457    2.265542011882
