14

 N    0.695638251411    0.531296046714   -1.821110370881
 C   -0.389808691492    1.354055016542   -1.817968499660
 H   -0.198287851610    2.429111989041   -1.820473098202
 C    0.613774530729   -0.887974415012   -1.820092701997
 O    1.657517778047   -1.541216305073   -1.822573543309
 N   -0.660063557952   -1.430114046605   -1.809479467867
 C   -1.717749670765   -0.628762015730   -1.811972512695
 N   -2.949742787221   -1.232561044810   -1.857378335904
 H   -2.958677255542   -2.232254931321   -1.687807727339
 H   -3.768320531424   -0.706132725410   -1.582478211107
 C   -1.649167672331    0.812614823465   -1.815455946361
 H   -2.537691388016    1.443932414709   -1.824937900388
 H    1.639578374338    0.905944259156   -1.824416267109
RB    0.705384863139    0.528116026799    2.378877116128
