14

 N    0.695034904412    0.531492900301   -2.081103270573
 C   -0.390412038491    1.354251870129   -2.077961399352
 H   -0.198891198609    2.429308842628   -2.080465997894
 C    0.613171183730   -0.887777561425   -2.080085601689
 O    1.656914431048   -1.541019451486   -2.082566443001
 N   -0.660666904951   -1.429917193018   -2.069472367559
 C   -1.718353017764   -0.628565162143   -2.071965412387
 N   -2.950346134220   -1.232364191223   -2.117371235596
 H   -2.959280602541   -2.232058077734   -1.947800627031
 H   -3.768923878423   -0.705935871823   -1.842471110799
 C   -1.649771019330    0.812811677052   -2.075448846053
 H   -2.538294735015    1.444129268296   -2.084930800080
 H    1.638975027339    0.906141112743   -2.084409166801
RB    0.706173889245    0.527858591826    2.718882428866
