14

 N    0.694934346579    0.531525709232   -2.124435420521
 C   -0.390512596324    1.354284679060   -2.121293549300
 H   -0.198991756442    2.429341651559   -2.123798147842
 C    0.613070625897   -0.887744752494   -2.123417751637
 O    1.656813873215   -1.540986642555   -2.125898592949
 N   -0.660767462784   -1.429884384087   -2.112804517507
 C   -1.718453575597   -0.628532353212   -2.115297562335
 N   -2.950446692053   -1.232331382292   -2.160703385544
 H   -2.959381160374   -2.232025268803   -1.991132776979
 H   -3.769024436256   -0.705903062892   -1.885803260747
 C   -1.649871577163    0.812844485983   -2.118780996001
 H   -2.538395292848    1.444162077227   -2.128262950028
 H    1.638874469506    0.906173921674   -2.127741316749
RB    0.706305393596    0.527815685997    2.775549980989
