14

 N    0.694532115246    0.531656944956   -2.297764020315
 C   -0.390914827657    1.354415914784   -2.294622149094
 H   -0.199393987775    2.429472887283   -2.297126747636
 C    0.612668394564   -0.887613516770   -2.296746351431
 O    1.656411641882   -1.540855406831   -2.299227192743
 N   -0.661169694117   -1.429753148363   -2.286133117301
 C   -1.718855806930   -0.628401117488   -2.288626162129
 N   -2.950848923386   -1.232200146568   -2.334031985338
 H   -2.959783391707   -2.231894033079   -2.164461376773
 H   -3.769426667589   -0.705771827168   -2.059131860541
 C   -1.650273808496    0.812975721707   -2.292109595795
 H   -2.538797524181    1.444293312951   -2.301591549822
 H    1.638472238173    0.906305157398   -2.301069916543
RB    0.706831410999    0.527644062682    3.002220189482
