14

 N    0.694431557413    0.531689753887   -2.341096170264
 C   -0.391015385490    1.354448723715   -2.337954299043
 H   -0.199494545608    2.429505696214   -2.340458897585
 C    0.612567836731   -0.887580707839   -2.340078501380
 O    1.656311084049   -1.540822597900   -2.342559342692
 N   -0.661270251950   -1.429720339432   -2.329465267250
 C   -1.718956364763   -0.628368308557   -2.331958312078
 N   -2.950949481219   -1.232167337637   -2.377364135287
 H   -2.959883949540   -2.231861224148   -2.207793526722
 H   -3.769527225422   -0.705739018237   -2.102464010490
 C   -1.650374366329    0.813008530638   -2.335441745744
 H   -2.538898082014    1.444326121882   -2.344923699771
 H    1.638371680340    0.906337966329   -2.344402066492
RB    0.706962915350    0.527601156853    3.058887741605
