14

 N    0.694029326081    0.531820989611   -2.514424770058
 C   -0.391417616822    1.354579959439   -2.511282898837
 H   -0.199896776940    2.429636931938   -2.513787497379
 C    0.612165605399   -0.887449472115   -2.513407101174
 O    1.655908852717   -1.540691362176   -2.515887942486
 N   -0.661672483282   -1.429589103708   -2.502793867044
 C   -1.719358596095   -0.628237072833   -2.505286911872
 N   -2.951351712551   -1.232036101913   -2.550692735081
 H   -2.960286180872   -2.231729988424   -2.381122126516
 H   -3.769929456754   -0.705607782513   -2.275792610284
 C   -1.650776597661    0.813139766362   -2.508770345538
 H   -2.539300313346    1.444457357606   -2.518252299565
 H    1.637969449008    0.906469202053   -2.517730666286
RB    0.707488932753    0.527429533537    3.285557950097
