14

 N    0.693727652581    0.531919416404   -2.644421219904
 C   -0.391719290322    1.354678386232   -2.641279348683
 H   -0.200198450440    2.429735358731   -2.643783947225
 C    0.611863931899   -0.887351045322   -2.643403551020
 O    1.655607179217   -1.540592935383   -2.645884392332
 N   -0.661974156782   -1.429490676915   -2.632790316890
 C   -1.719660269595   -0.628138646040   -2.635283361718
 N   -2.951653386051   -1.231937675120   -2.680689184927
 H   -2.960587854372   -2.231631561631   -2.511118576362
 H   -3.770231130254   -0.705509355720   -2.405789060130
 C   -1.651078271161    0.813238193155   -2.638766795384
 H   -2.539601986846    1.444555784399   -2.648248749411
 H    1.637667775508    0.906567628846   -2.647727116132
RB    0.707883445806    0.527300816051    3.455560606466
