14

 N    0.693627094748    0.531952225335   -2.687753369853
 C   -0.391819848155    1.354711195163   -2.684611498632
 H   -0.200299008273    2.429768167662   -2.687116097174
 C    0.611763374066   -0.887318236391   -2.686735700969
 O    1.655506621384   -1.540560126452   -2.689216542281
 N   -0.662074714615   -1.429457867984   -2.676122466839
 C   -1.719760827428   -0.628105837109   -2.678615511667
 N   -2.951753943884   -1.231904866189   -2.724021334876
 H   -2.960688412205   -2.231598752700   -2.554450726311
 H   -3.770331688087   -0.705476546789   -2.449121210079
 C   -1.651178828994    0.813271002086   -2.682098945333
 H   -2.539702544679    1.444588593330   -2.691580899360
 H    1.637567217675    0.906600437777   -2.691059266081
RB    0.708014950157    0.527257910222    3.512228158589
