14

 N    0.693526536915    0.531985034266   -2.731085519801
 C   -0.391920405988    1.354744004094   -2.727943648580
 H   -0.200399566106    2.429800976593   -2.730448247122
 C    0.611662816233   -0.887285427460   -2.730067850917
 O    1.655406063551   -1.540527317521   -2.732548692229
 N   -0.662175272448   -1.429425059053   -2.719454616787
 C   -1.719861385261   -0.628073028178   -2.721947661615
 N   -2.951854501717   -1.231872057258   -2.767353484824
 H   -2.960788970038   -2.231565943769   -2.597782876259
 H   -3.770432245920   -0.705443737858   -2.492453360027
 C   -1.651279386827    0.813303811017   -2.725431095281
 H   -2.539803102512    1.444621402261   -2.734913049308
 H    1.637466659842    0.906633246708   -2.734391416029
RB    0.708146454508    0.527215004393    3.568895710713
