14

 N    0.692923189916    0.532181887852   -2.991078419493
 C   -0.392523752987    1.354940857680   -2.987936548272
 H   -0.201002913105    2.429997830179   -2.990441146814
 C    0.611059469234   -0.887088573874   -2.990060750609
 O    1.654802716552   -1.540330463935   -2.992541591921
 N   -0.662778619447   -1.429228205467   -2.979447516479
 C   -1.720464732260   -0.627876174592   -2.981940561307
 N   -2.952457848716   -1.231675203672   -3.027346384516
 H   -2.961392317037   -2.231369090183   -2.857775775951
 H   -3.771035592919   -0.705246884272   -2.752446259719
 C   -1.651882733826    0.813500664603   -2.985423994973
 H   -2.540406449511    1.444818255847   -2.994905949000
 H    1.636863312843    0.906830100294   -2.994384315721
RB    0.708935480613    0.526957569420    3.908901023451
