14

 N    0.692722074250    0.532247505714   -3.077742719390
 C   -0.392724868653    1.355006475542   -3.074600848169
 H   -0.201204028771    2.430063448041   -3.077105446711
 C    0.610858353568   -0.887022956012   -3.076725050506
 O    1.654601600886   -1.540264846073   -3.079205891818
 N   -0.662979735113   -1.429162587605   -3.066111816376
 C   -1.720665847926   -0.627810556730   -3.068604861204
 N   -2.952658964382   -1.231609585810   -3.114010684413
 H   -2.961593432703   -2.231303472321   -2.944440075848
 H   -3.771236708585   -0.705181266410   -2.839110559616
 C   -1.652083849492    0.813566282465   -3.072088294870
 H   -2.540607565177    1.444883873709   -3.081570248897
 H    1.636662197177    0.906895718156   -3.081048615618
RB    0.709198489315    0.526871757762    4.022236127697
