14

 N    0.692621516417    0.532280314645   -3.121074869338
 C   -0.392825426486    1.355039284473   -3.117932998117
 H   -0.201304586604    2.430096256972   -3.120437596659
 C    0.610757795735   -0.886990147081   -3.120057200454
 O    1.654501043053   -1.540232037142   -3.122538041766
 N   -0.663080292946   -1.429129778674   -3.109443966324
 C   -1.720766405759   -0.627777747799   -3.111937011152
 N   -2.952759522215   -1.231576776879   -3.157342834361
 H   -2.961693990536   -2.231270663390   -2.987772225796
 H   -3.771337266418   -0.705148457479   -2.882442709564
 C   -1.652184407325    0.813599091396   -3.115420444818
 H   -2.540708123010    1.444916682640   -3.124902398845
 H    1.636561639344    0.906928527087   -3.124380765566
RB    0.709329993666    0.526828851934    4.078903679820
