14

 N    0.692319842917    0.532378741439   -3.251071319184
 C   -0.393127099986    1.355137711267   -3.247929447963
 H   -0.201606260104    2.430194683766   -3.250434046505
 C    0.610456122235   -0.886891720287   -3.250053650300
 O    1.654199369553   -1.540133610348   -3.252534491612
 N   -0.663381966446   -1.429031351880   -3.239440416170
 C   -1.721068079259   -0.627679321005   -3.241933460998
 N   -2.953061195715   -1.231478350085   -3.287339284207
 H   -2.961995664036   -2.231172236596   -3.117768675642
 H   -3.771638939918   -0.705050030685   -3.012439159410
 C   -1.652486080825    0.813697518190   -3.245416894664
 H   -2.541009796510    1.445015109434   -3.254898848691
 H    1.636259965844    0.907026953881   -3.254377215412
RB    0.709724506718    0.526700134447    4.248906336189
