14

 N    0.692219285084    0.532411550370   -3.294403469132
 C   -0.393227657819    1.355170520198   -3.291261597911
 H   -0.201706817937    2.430227492697   -3.293766196453
 C    0.610355564402   -0.886858911356   -3.293385800248
 O    1.654098811720   -1.540100801417   -3.295866641560
 N   -0.663482524279   -1.428998542949   -3.282772566118
 C   -1.721168637092   -0.627646512074   -3.285265610946
 N   -2.953161753548   -1.231445541154   -3.330671434155
 H   -2.962096221869   -2.231139427665   -3.161100825590
 H   -3.771739497751   -0.705017221754   -3.055771309358
 C   -1.652586638658    0.813730327121   -3.288749044612
 H   -2.541110354343    1.445047918365   -3.298230998639
 H    1.636159408011    0.907059762812   -3.297709365360
RB    0.709856011069    0.526657228618    4.305573888313
