14

 N    0.691817053751    0.532542786094   -3.467732068927
 C   -0.393629889152    1.355301755922   -3.464590197706
 H   -0.202109049270    2.430358728421   -3.467094796248
 C    0.609953333069   -0.886727675632   -3.466714400043
 O    1.653696580387   -1.539969565693   -3.469195241355
 N   -0.663884755612   -1.428867307225   -3.456101165913
 C   -1.721570868425   -0.627515276350   -3.458594210741
 N   -2.953563984881   -1.231314305430   -3.504000033950
 H   -2.962498453202   -2.231008191941   -3.334429425385
 H   -3.772141729084   -0.704885986030   -3.229099909153
 C   -1.652988869991    0.813861562845   -3.462077644407
 H   -2.541512585676    1.445179154089   -3.471559598434
 H    1.635757176678    0.907190998536   -3.471037965155
RB    0.710382028473    0.526485605303    4.532244096805
