14

 N    0.691716495918    0.532575595025   -3.511064218875
 C   -0.393730446985    1.355334564853   -3.507922347654
 H   -0.202209607103    2.430391537352   -3.510426946196
 C    0.609852775236   -0.886694866701   -3.510046549991
 O    1.653596022554   -1.539936756762   -3.512527391303
 N   -0.663985313445   -1.428834498294   -3.499433315861
 C   -1.721671426258   -0.627482467419   -3.501926360689
 N   -2.953664542714   -1.231281496499   -3.547332183898
 H   -2.962599011035   -2.230975383010   -3.377761575333
 H   -3.772242286917   -0.704853177099   -3.272432059101
 C   -1.653089427824    0.813894371776   -3.505409794355
 H   -2.541613143509    1.445211963020   -3.514891748382
 H    1.635656618845    0.907223807467   -3.514370115103
RB    0.710513532824    0.526442699474    4.588911648928
