14

 N    0.691515380252    0.532641212887   -3.597728518772
 C   -0.393931562651    1.355400182715   -3.594586647551
 H   -0.202410722769    2.430457155214   -3.597091246093
 C    0.609651659570   -0.886629248839   -3.596710849888
 O    1.653394906888   -1.539871138900   -3.599191691200
 N   -0.664186429111   -1.428768880432   -3.586097615758
 C   -1.721872541924   -0.627416849557   -3.588590660586
 N   -2.953865658380   -1.231215878637   -3.633996483795
 H   -2.962800126701   -2.230909765148   -3.464425875230
 H   -3.772443402583   -0.704787559237   -3.359096358998
 C   -1.653290543490    0.813959989638   -3.592074094252
 H   -2.541814259175    1.445277580882   -3.601556048279
 H    1.635455503179    0.907289425329   -3.601034415000
RB    0.710776541525    0.526356887816    4.702246753174
