14

 N    0.691414822419    0.532674021818   -3.641060668721
 C   -0.394032120484    1.355432991646   -3.637918797500
 H   -0.202511280602    2.430489964145   -3.640423396042
 C    0.609551101737   -0.886596439908   -3.640042999837
 O    1.653294349055   -1.539838329969   -3.642523841149
 N   -0.664286986944   -1.428736071501   -3.629429765707
 C   -1.721973099757   -0.627384040626   -3.631922810535
 N   -2.953966216213   -1.231183069706   -3.677328633744
 H   -2.962900684534   -2.230876956217   -3.507758025179
 H   -3.772543960416   -0.704754750306   -3.402428508947
 C   -1.653391101323    0.813992798569   -3.635406244201
 H   -2.541914817008    1.445310389813   -3.644888198228
 H    1.635354945346    0.907322234260   -3.644366564949
RB    0.710908045876    0.526313981987    4.758914305297
