14

 N    0.690811475420    0.532870875404   -3.901053568412
 C   -0.394635467483    1.355629845232   -3.897911697191
 H   -0.203114627601    2.430686817731   -3.900416295733
 C    0.608947754738   -0.886399586322   -3.900035899528
 O    1.652691002056   -1.539641476383   -3.902516740840
 N   -0.664890333943   -1.428539217915   -3.889422665398
 C   -1.722576446756   -0.627187187040   -3.891915710226
 N   -2.954569563212   -1.230986216120   -3.937321533435
 H   -2.963504031533   -2.230680102631   -3.767750924870
 H   -3.773147307415   -0.704557896720   -3.662421408638
 C   -1.653994448322    0.814189652155   -3.895399143892
 H   -2.542518164007    1.445507243399   -3.904881097919
 H    1.634751598347    0.907519087846   -3.904359464640
RB    0.711697071981    0.526056547014    5.098919618036
