14

 N    0.690610359754    0.532936493266   -3.987717868310
 C   -0.394836583149    1.355695463094   -3.984575997089
 H   -0.203315743267    2.430752435593   -3.987080595631
 C    0.608746639072   -0.886333968460   -3.986700199426
 O    1.652489886390   -1.539575858521   -3.989181040738
 N   -0.665091449609   -1.428473600053   -3.976086965296
 C   -1.722777562422   -0.627121569178   -3.978580010124
 N   -2.954770678878   -1.230920598258   -4.023985833333
 H   -2.963705147199   -2.230614484769   -3.854415224768
 H   -3.773348423081   -0.704492278858   -3.749085708536
 C   -1.654195563988    0.814255270017   -3.982063443790
 H   -2.542719279673    1.445572861261   -3.991545397817
 H    1.634550482681    0.907584705708   -3.991023764538
RB    0.711960080683    0.525970735356    5.212254722282
