14

 N    0.690509801921    0.532969302197   -4.031050018258
 C   -0.394937140982    1.355728272025   -4.027908147037
 H   -0.203416301100    2.430785244524   -4.030412745579
 C    0.608646081239   -0.886301159529   -4.030032349374
 O    1.652389328557   -1.539543049590   -4.032513190686
 N   -0.665192007442   -1.428440791122   -4.019419115244
 C   -1.722878120255   -0.627088760247   -4.021912160072
 N   -2.954871236711   -1.230887789327   -4.067317983281
 H   -2.963805705032   -2.230581675838   -3.897747374716
 H   -3.773448980914   -0.704459469927   -3.792417858484
 C   -1.654296121821    0.814288078948   -4.025395593738
 H   -2.542819837506    1.445605670192   -4.034877547765
 H    1.634449924848    0.907617514639   -4.034355914486
RB    0.712091585034    0.525927829528    5.268922274405
