14

 N    0.690107570588    0.533100537921   -4.204378618052
 C   -0.395339372315    1.355859507749   -4.201236746831
 H   -0.203818532433    2.430916480248   -4.203741345373
 C    0.608243849906   -0.886169923805   -4.203360949168
 O    1.651987097224   -1.539411813866   -4.205841790480
 N   -0.665594238775   -1.428309555398   -4.192747715038
 C   -1.723280351588   -0.626957524523   -4.195240759866
 N   -2.955273468044   -1.230756553603   -4.240646583075
 H   -2.964207936365   -2.230450440114   -4.071075974510
 H   -3.773851212247   -0.704328234203   -3.965746458278
 C   -1.654698353154    0.814419314672   -4.198724193532
 H   -2.543222068839    1.445736905916   -4.208206147559
 H    1.634047693515    0.907748750363   -4.207684514280
RB    0.712617602437    0.525756206212    5.495592482897
