14

 N    0.689906454922    0.533166155783   -4.291042917950
 C   -0.395540487981    1.355925125611   -4.287901046729
 H   -0.204019648099    2.430982098110   -4.290405645271
 C    0.608042734240   -0.886104305943   -4.290025249066
 O    1.651785981558   -1.539346196004   -4.292506090378
 N   -0.665795354441   -1.428243937536   -4.279412014936
 C   -1.723481467254   -0.626891906661   -4.281905059764
 N   -2.955474583710   -1.230690935741   -4.327310882973
 H   -2.964409052031   -2.230384822252   -4.157740274408
 H   -3.774052327913   -0.704262616341   -4.052410758176
 C   -1.654899468820    0.814484932534   -4.285388493430
 H   -2.543423184505    1.445802523778   -4.294870447457
 H    1.633846577849    0.907814368225   -4.294348814178
RB    0.712880611139    0.525670394554    5.608927587143
