14

 C   -0.228562136082    0.693822048459    0.705530077959
 N    0.400191863918    1.883460048459    0.705530077959
 H   -0.119155136082    2.751673048459    0.705530077959
 H    1.410180863918    1.942639048459    0.705530077959
 N   -1.570782136082    0.652930048459    0.705530077959
 H   -2.118824136082    1.503664048459    0.705530077959
 H   -2.068386136082   -0.227492951541    0.705530077959
 N    0.472160863918   -0.443875951541    0.705530077959
 H    1.483447863918   -0.375474951541    0.705530077959
 C   -0.143289136082   -1.777362951541    0.705530077959
 H    0.664116863918   -2.517573951541    0.705530077959
 H   -0.751158136082   -1.924352951541    1.611058077959
 H   -0.751158136082   -1.924352951541   -0.199997922041
CL    0.472160863918   -0.443875951541   -1.494469922041
