14

 C   -0.228562136082    0.693822048459    2.918328958831
 N    0.400191863918    1.883460048459    2.918328958831
 H   -0.119155136082    2.751673048459    2.918328958831
 H    1.410180863918    1.942639048459    2.918328958831
 N   -1.570782136082    0.652930048459    2.918328958831
 H   -2.118824136082    1.503664048459    2.918328958831
 H   -2.068386136082   -0.227492951541    2.918328958831
 N    0.472160863918   -0.443875951541    2.918328958831
 H    1.483447863918   -0.375474951541    2.918328958831
 C   -0.143289136082   -1.777362951541    2.918328958831
 H    0.664116863918   -2.517573951541    2.918328958831
 H   -0.751158136082   -1.924352951541    3.823856958831
 H   -0.751158136082   -1.924352951541    2.012800958831
CL    0.472160863918   -0.443875951541   -6.181671041169
