14

 N    1.375357357576    2.088886348936   -0.008682023513
 C    0.289910414673    2.911645318764   -0.005540152292
 H    0.481431254555    3.986702291263   -0.008044750834
 C    1.293493636894    0.669615887210   -0.007664354629
 O    2.337236884212    0.016373997149   -0.010145195941
 N    0.019655548213    0.127476255617    0.002948879501
 C   -1.038030564600    0.928828286492    0.000455834673
 N   -2.270023681056    0.325029257412   -0.044949988536
 H   -2.278958149377   -0.674664629099    0.124620620029
 H   -3.088601425259    0.851457576812    0.229950136261
 C   -0.969448566166    2.370205125687   -0.003027598993
 H   -1.857972281851    3.001522716931   -0.012509553020
 H    2.319297480503    2.463534561378   -0.011987919741
CS   -0.117246773847   -0.963968210350    0.005543474902
