14

 N    1.382137868084    2.142943508517   -0.008810528867
 C    0.296690925181    2.965702478345   -0.005668657646
 H    0.488211765063    4.040759450844   -0.008173256188
 C    1.300274147402    0.723673046791   -0.007792859983
 O    2.344017394720    0.070431156730   -0.010273701295
 N    0.026436058721    0.181533415198    0.002820374147
 C   -1.031250054092    0.982885446073    0.000327329319
 N   -2.263243170548    0.379086416993   -0.045078493890
 H   -2.272177638869   -0.620607469518    0.124492114675
 H   -3.081820914751    0.905514736393    0.229821630907
 C   -0.962668055658    2.424262285268   -0.003156104347
 H   -1.851191771343    3.055579876512   -0.012638058374
 H    2.326077991011    2.517591720959   -0.012116425095
CS   -0.122911928981   -1.009133274948    0.005650841857
