14

 N    1.388918378592    2.197000668098   -0.008939034222
 C    0.303471435689    3.019759637926   -0.005797163001
 H    0.494992275571    4.094816610425   -0.008301761543
 C    1.307054657910    0.777730206372   -0.007921365338
 O    2.350797905228    0.124488316311   -0.010402206650
 N    0.033216569229    0.235590574779    0.002691868792
 C   -1.024469543584    1.036942605654    0.000198823964
 N   -2.256462660040    0.433143576574   -0.045206999245
 H   -2.265397128361   -0.566550309937    0.124363609320
 H   -3.075040404243    0.959571895974    0.229693125552
 C   -0.955887545150    2.478319444849   -0.003284609702
 H   -1.844411260835    3.109637036093   -0.012766563729
 H    2.332858501519    2.571648880540   -0.012244930450
CS   -0.128577084114   -1.054298339545    0.005758208812
