14

 N    1.395698889101    2.251057827679   -0.009067539576
 C    0.310251946198    3.073816797507   -0.005925668355
 H    0.501772786080    4.148873770006   -0.008430266897
 C    1.313835168419    0.831787365953   -0.008049870692
 O    2.357578415737    0.178545475892   -0.010530712004
 N    0.039997079738    0.289647734360    0.002563363438
 C   -1.017689033075    1.090999765235    0.000070318610
 N   -2.249682149531    0.487200736155   -0.045335504599
 H   -2.258616617852   -0.512493150356    0.124235103966
 H   -3.068259893734    1.013629055555    0.229564620198
 C   -0.949107034641    2.532376604430   -0.003413115056
 H   -1.837630750326    3.163694195674   -0.012895069083
 H    2.339639012028    2.625706040121   -0.012373435804
CS   -0.134242239248   -1.099463404143    0.005865575767
