14

 N    1.416040420625    2.413229306422   -0.009453055638
 C    0.330593477722    3.235988276250   -0.006311184417
 H    0.522114317604    4.311045248749   -0.008815782959
 C    1.334176699943    0.993958844696   -0.008435386754
 O    2.377919947261    0.340716954635   -0.010916228066
 N    0.060338611262    0.451819213103    0.002177847376
 C   -0.997347501551    1.253171243978   -0.000315197452
 N   -2.229340618007    0.649372214898   -0.045721020661
 H   -2.238275086328   -0.350321671613    0.123849587904
 H   -3.047918362210    1.175800534298    0.229179104136
 C   -0.928765503117    2.694548083173   -0.003798631118
 H   -1.817289218802    3.325865674417   -0.013280585145
 H    2.359980543552    2.787877518864   -0.012758951866
CS   -0.151237704649   -1.234958597936    0.006187676632
