14

 N    1.443162462658    2.629457944747   -0.009967077055
 C    0.357715519755    3.452216914575   -0.006825205834
 H    0.549236359637    4.527273887074   -0.009329804376
 C    1.361298741976    1.210187483021   -0.008949408171
 O    2.405041989294    0.556945592960   -0.011430249483
 N    0.087460653295    0.668047851428    0.001663825959
 C   -0.970225459518    1.469399882303   -0.000829218869
 N   -2.202218575974    0.865600853223   -0.046235042078
 H   -2.211153044295   -0.134093033288    0.123335566487
 H   -3.020796320177    1.392029172623    0.228665082719
 C   -0.901643461084    2.910776721498   -0.004312652535
 H   -1.790167176769    3.542094312742   -0.013794606562
 H    2.387102585585    3.004106157189   -0.013272973283
CS   -0.173898325183   -1.415618856327    0.006617144452
