14

 N    1.456723483675    2.737572263909   -0.010224087763
 C    0.371276540772    3.560331233737   -0.007082216542
 H    0.562797380654    4.635388206236   -0.009586815084
 C    1.374859762993    1.318301802183   -0.009206418879
 O    2.418603010311    0.665059912122   -0.011687260191
 N    0.101021674312    0.776162170590    0.001406815251
 C   -0.956664438501    1.577514201465   -0.001086229577
 N   -2.188657554957    0.973715172385   -0.046492052786
 H   -2.197592023278   -0.025978714126    0.123078555779
 H   -3.007235299160    1.500143491785    0.228408072011
 C   -0.888082440067    3.018891040660   -0.004569663243
 H   -1.776606155752    3.650208631904   -0.014051617270
 H    2.400663606602    3.112220476351   -0.013529983991
CS   -0.185228635450   -1.505948985522    0.006831878363
