14

 N    1.470284504691    2.845686583071   -0.010481098472
 C    0.384837561788    3.668445552899   -0.007339227251
 H    0.576358401670    4.743502525398   -0.009843825793
 C    1.388420784009    1.426416121345   -0.009463429588
 O    2.432164031327    0.773174231284   -0.011944270900
 N    0.114582695328    0.884276489752    0.001149804542
 C   -0.943103417485    1.685628520627   -0.001343240286
 N   -2.175096533941    1.081829491547   -0.046749063495
 H   -2.184031002262    0.082135605036    0.122821545070
 H   -2.993674278144    1.608257810947    0.228151061302
 C   -0.874521419051    3.127005359822   -0.004826673952
 H   -1.763045134736    3.758322951066   -0.014308627979
 H    2.414224627618    3.220334795513   -0.013786994700
CS   -0.196558945717   -1.596279114718    0.007046612273
