14

 N    1.477065015199    2.899743742652   -0.010609603826
 C    0.391618072296    3.722502712480   -0.007467732605
 H    0.583138912178    4.797559684979   -0.009972331147
 C    1.395201294517    1.480473280926   -0.009591934942
 O    2.438944541835    0.827231390865   -0.012072776254
 N    0.121363205836    0.938333649333    0.001021299188
 C   -0.936322906977    1.739685680208   -0.001471745640
 N   -2.168316023433    1.135886651128   -0.046877568849
 H   -2.177250491754    0.136192764617    0.122693039716
 H   -2.986893767636    1.662314970528    0.228022555948
 C   -0.867740908543    3.181062519403   -0.004955179306
 H   -1.756264624228    3.812380110647   -0.014437133333
 H    2.421005138126    3.274391955094   -0.013915500054
CS   -0.202224100851   -1.641444179315    0.007153979228
