14

 N    1.490626036216    3.007858061814   -0.010866614534
 C    0.405179093313    3.830617031642   -0.007724743313
 H    0.596699933195    4.905674004141   -0.010229341855
 C    1.408762315534    1.588587600088   -0.009848945650
 O    2.452505562852    0.935345710027   -0.012329786962
 N    0.134924226853    1.046447968495    0.000764288480
 C   -0.922761885960    1.847799999370   -0.001728756348
 N   -2.154755002416    1.244000970290   -0.047134579557
 H   -2.163689470737    0.244307083779    0.122436029008
 H   -2.973332746619    1.770429289690    0.227765545240
 C   -0.854179887526    3.289176838565   -0.005212190014
 H   -1.742703603211    3.920494429809   -0.014694144041
 H    2.434566159143    3.382506274256   -0.014172510762
CS   -0.213554411118   -1.731774308511    0.007368713138
