14

 N    1.517748078248    3.224086700139   -0.011380635951
 C    0.432301135345    4.046845669967   -0.008238764730
 H    0.623821975227    5.121902642466   -0.010743363272
 C    1.435884357566    1.804816238413   -0.010362967067
 O    2.479627604884    1.151574348352   -0.012843808379
 N    0.162046268885    1.262676606820    0.000250267063
 C   -0.895639843928    2.064028637695   -0.002242777765
 N   -2.127632960384    1.460229608615   -0.047648600974
 H   -2.136567428705    0.460535722104    0.121922007591
 H   -2.946210704587    1.986657928015    0.227251523823
 C   -0.827057845494    3.505405476890   -0.005726211431
 H   -1.715581561179    4.136723068134   -0.015208165458
 H    2.461688201175    3.598734912581   -0.014686532179
CS   -0.236215031653   -1.912434566902    0.007798180958
