14

 N    1.544870120281    3.440315338463   -0.011894657367
 C    0.459423177378    4.263074308291   -0.008752786146
 H    0.650944017260    5.338131280790   -0.011257384688
 C    1.463006399599    2.021044876737   -0.010876988483
 O    2.506749646917    1.367802986676   -0.013357829795
 N    0.189168310918    1.478905245144   -0.000263754353
 C   -0.868517801895    2.280257276019   -0.002756799181
 N   -2.100510918351    1.676458246939   -0.048162622390
 H   -2.109445386672    0.676764360428    0.121407986175
 H   -2.919088662554    2.202886566339    0.226737502407
 C   -0.799935803461    3.721634115214   -0.006240232847
 H   -1.688459519146    4.352951706458   -0.015722186874
 H    2.488810243208    3.814963550905   -0.015200553595
CS   -0.258875652187   -2.093094825292    0.008227648778
