14

 N    1.558431141298    3.548429657625   -0.012151668076
 C    0.472984198395    4.371188627453   -0.009009796855
 H    0.664505038277    5.446245599952   -0.011514395397
 C    1.476567420616    2.129159195899   -0.011133999192
 O    2.520310667934    1.475917305838   -0.013614840504
 N    0.202729331935    1.587019564306   -0.000520765062
 C   -0.854956780878    2.388371595181   -0.003013809890
 N   -2.086949897334    1.784572566101   -0.048419633099
 H   -2.095884365655    0.784878679590    0.121150975466
 H   -2.905527641537    2.311000885501    0.226480491698
 C   -0.786374782444    3.829748434376   -0.006497243556
 H   -1.674898498129    4.461066025620   -0.015979197583
 H    2.502371264225    3.923077870067   -0.015457564304
CS   -0.270205962454   -2.183424954488    0.008442382688
