14

 N    1.571992162314    3.656543976788   -0.012408678784
 C    0.486545219411    4.479302946616   -0.009266807563
 H    0.678066059293    5.554359919115   -0.011771406105
 C    1.490128441632    2.237273515062   -0.011391009900
 O    2.533871688950    1.584031625001   -0.013871851212
 N    0.216290352951    1.695133883469   -0.000777775770
 C   -0.841395759862    2.496485914344   -0.003270820598
 N   -2.073388876318    1.892686885264   -0.048676643807
 H   -2.082323344639    0.892992998753    0.120893964758
 H   -2.891966620521    2.419115204664    0.226223480990
 C   -0.772813761428    3.937862753539   -0.006754254264
 H   -1.661337477113    4.569180344783   -0.016236208291
 H    2.515932285241    4.031192189230   -0.015714575012
CS   -0.281536272721   -2.273755083683    0.008657116598
