14

 N    1.605894714855    3.926829774693   -0.013051205555
 C    0.520447771952    4.749588744521   -0.009909334334
 H    0.711968611834    5.824645717020   -0.012413932876
 C    1.524030994173    2.507559312967   -0.012033536671
 O    2.567774241491    1.854317422906   -0.014514377983
 N    0.250192905492    1.965419681374   -0.001420302541
 C   -0.807493207321    2.766771712249   -0.003913347369
 N   -2.039486323777    2.162972683169   -0.049319170578
 H   -2.048420792098    1.163278796658    0.120251437987
 H   -2.858064067980    2.689401002569    0.225580954219
 C   -0.738911208887    4.208148551444   -0.007396781035
 H   -1.627434924572    4.839466142688   -0.016878735062
 H    2.549834837782    4.301477987135   -0.016357101783
CS   -0.309862048389   -2.499580406672    0.009193951373
