14

 N    1.612675225363    3.980886934274   -0.013179710909
 C    0.527228282460    4.803645904102   -0.010037839688
 H    0.718749122342    5.878702876601   -0.012542438230
 C    1.530811504681    2.561616472548   -0.012162042025
 O    2.574554751999    1.908374582487   -0.014642883337
 N    0.256973416000    2.019476840955   -0.001548807895
 C   -0.800712696813    2.820828871830   -0.004041852723
 N   -2.032705813269    2.217029842750   -0.049447675932
 H   -2.041640281590    1.217335956239    0.120122932633
 H   -2.851283557472    2.743458162150    0.225452448865
 C   -0.732130698379    4.262205711025   -0.007525286389
 H   -1.620654414064    4.893523302269   -0.017007240416
 H    2.556615348290    4.355535146716   -0.016485607137
CS   -0.315527203523   -2.544745471269    0.009301318328
