14

 N    1.619455735872    4.034944093855   -0.013308216263
 C    0.534008792969    4.857703063683   -0.010166345042
 H    0.725529632851    5.932760036182   -0.012670943584
 C    1.537592015190    2.615673632129   -0.012290547379
 O    2.581335262508    1.962431742068   -0.014771388691
 N    0.263753926509    2.073534000536   -0.001677313249
 C   -0.793932186304    2.874886031411   -0.004170358077
 N   -2.025925302760    2.271087002331   -0.049576181286
 H   -2.034859771081    1.271393115820    0.119994427279
 H   -2.844503046963    2.797515321731    0.225323943511
 C   -0.725350187870    4.316262870606   -0.007653791743
 H   -1.613873903555    4.947580461850   -0.017135745770
 H    2.563395858799    4.409592306297   -0.016614112491
CS   -0.321192358657   -2.589910535867    0.009408685283
