14

 N    1.646577777904    4.251172732180   -0.013822237680
 C    0.561130835001    5.073931702008   -0.010680366459
 H    0.752651674883    6.148988674507   -0.013184965001
 C    1.564714057222    2.831902270454   -0.012804568796
 O    2.608457304540    2.178660380393   -0.015285410108
 N    0.290875968541    2.289762638861   -0.002191334666
 C   -0.766810144272    3.091114669736   -0.004684379494
 N   -1.998803260728    2.487315640656   -0.050090202703
 H   -2.007737729049    1.487621754145    0.119480405862
 H   -2.817381004931    3.013743960056    0.224809922094
 C   -0.698228145838    4.532491508931   -0.008167813160
 H   -1.586751861523    5.163809100175   -0.017649767187
 H    2.590517900831    4.625820944622   -0.017128133908
CS   -0.343852979191   -2.770570794258    0.009838153104
