14

 N    1.653358288413    4.305229891761   -0.013950743034
 C    0.567911345510    5.127988861589   -0.010808871813
 H    0.759432185392    6.203045834088   -0.013313470355
 C    1.571494567731    2.885959430035   -0.012933074150
 O    2.615237815049    2.232717539974   -0.015413915462
 N    0.297656479050    2.343819798442   -0.002319840020
 C   -0.760029633763    3.145171829317   -0.004812884848
 N   -1.992022750219    2.541372800237   -0.050218708057
 H   -2.000957218540    1.541678913726    0.119351900508
 H   -2.810600494422    3.067801119637    0.224681416740
 C   -0.691447635329    4.586548668512   -0.008296318514
 H   -1.579971351014    5.217866259756   -0.017778272541
 H    2.597298411340    4.679878104203   -0.017256639262
CS   -0.349518134325   -2.815735858855    0.009945520059
