14

 N    1.666919309429    4.413344210923   -0.014207753743
 C    0.581472366526    5.236103180751   -0.011065882522
 H    0.772993206408    6.311160153250   -0.013570481064
 C    1.585055588747    2.994073749197   -0.013190084859
 O    2.628798836065    2.340831859136   -0.015670926171
 N    0.311217500066    2.451934117604   -0.002576850729
 C   -0.746468612747    3.253286148479   -0.005069895557
 N   -1.978461729203    2.649487119399   -0.050475718766
 H   -1.987396197524    1.649793232888    0.119094889799
 H   -2.797039473406    3.175915438799    0.224424406031
 C   -0.677886614313    4.694662987674   -0.008553329223
 H   -1.566410329998    5.325980578918   -0.018035283250
 H    2.610859432356    4.787992423365   -0.017513649971
CS   -0.360848444592   -2.906065988051    0.010160253969
