14

 N    1.680480330446    4.521458530085   -0.014464764451
 C    0.595033387543    5.344217499913   -0.011322893230
 H    0.786554227425    6.419274472412   -0.013827491772
 C    1.598616609764    3.102188068359   -0.013447095567
 O    2.642359857082    2.448946178298   -0.015927936879
 N    0.324778521083    2.560048436766   -0.002833861437
 C   -0.732907591730    3.361400467641   -0.005326906265
 N   -1.964900708186    2.757601438561   -0.050732729474
 H   -1.973835176507    1.757907552050    0.118837879091
 H   -2.783478452389    3.284029757961    0.224167395323
 C   -0.664325593296    4.802777306836   -0.008810339931
 H   -1.552849308981    5.434094898080   -0.018292293958
 H    2.624420453373    4.896106742527   -0.017770660679
CS   -0.372178754859   -2.996396117246    0.010374987879
