14

 N    1.687260840954    4.575515689666   -0.014593269805
 C    0.601813898051    5.398274659494   -0.011451398584
 H    0.793334737933    6.473331631993   -0.013955997126
 C    1.605397120272    3.156245227940   -0.013575600921
 O    2.649140367590    2.503003337879   -0.016056442233
 N    0.331559031591    2.614105596347   -0.002962366791
 C   -0.726127081222    3.415457627222   -0.005455411619
 N   -1.958120197678    2.811658598142   -0.050861234828
 H   -1.967054665999    1.811964711631    0.118709373737
 H   -2.776697941881    3.338086917542    0.224038889969
 C   -0.657545082788    4.856834466417   -0.008938845285
 H   -1.546068798473    5.488152057661   -0.018420799312
 H    2.631200963881    4.950163902108   -0.017899166033
CS   -0.377843909993   -3.041561181844    0.010482354834
