14

 N    1.714382882987    4.791744327991   -0.015107291222
 C    0.628935940084    5.614503297819   -0.011965420001
 H    0.820456779966    6.689560270318   -0.014470018543
 C    1.632519162305    3.372473866265   -0.014089622338
 O    2.676262409623    2.719231976204   -0.016570463650
 N    0.358681073624    2.830334234672   -0.003476388208
 C   -0.699005039189    3.631686265547   -0.005969433036
 N   -1.930998155645    3.027887236467   -0.051375256245
 H   -1.939932623966    2.028193349956    0.118195352320
 H   -2.749575899848    3.554315555867    0.223524868552
 C   -0.630423040755    5.073063104742   -0.009452866702
 H   -1.518946756440    5.704380695986   -0.018934820729
 H    2.658323005914    5.166392540433   -0.018413187450
CS   -0.400504530527   -3.222221440235    0.010911822654
