14

 N    1.734724414511    4.953915806734   -0.015492807284
 C    0.649277471608    5.776674776562   -0.012350936063
 H    0.840798311490    6.851731749061   -0.014855534605
 C    1.652860693829    3.534645345008   -0.014475138400
 O    2.696603941147    2.881403454947   -0.016955979712
 N    0.379022605148    2.992505713415   -0.003861904270
 C   -0.678663507665    3.793857744290   -0.006354949098
 N   -1.910656624121    3.190058715210   -0.051760772307
 H   -1.919591092442    2.190364828699    0.117809836258
 H   -2.729234368324    3.716487034610    0.223139352490
 C   -0.610081509231    5.235234583485   -0.009838382764
 H   -1.498605224916    5.866552174729   -0.019320336791
 H    2.678664537438    5.328564019176   -0.018798703512
CS   -0.417499995928   -3.357716634028    0.011233923519
