14

 N    1.782187988069    5.332315923801   -0.016392344763
 C    0.696741045166    6.155074893629   -0.013250473542
 H    0.888261885048    7.230131866128   -0.015755072084
 C    1.700324267387    3.913045462075   -0.015374675879
 O    2.744067514705    3.259803572014   -0.017855517191
 N    0.426486178706    3.370905830482   -0.004761441749
 C   -0.631199934107    4.172257861357   -0.007254486577
 N   -1.863193050563    3.568458832277   -0.052660309786
 H   -1.872127518884    2.568764945766    0.116910298779
 H   -2.681770794766    4.094887151677    0.222239815011
 C   -0.562617935673    5.613634700552   -0.010737920243
 H   -1.451141651358    6.244952291796   -0.020219874270
 H    2.726128110996    5.706964136243   -0.019698240991
CS   -0.457156081863   -3.673872086212    0.011985492204
