14

 N    1.795749009085    5.440430242964   -0.016649355472
 C    0.710302066182    6.263189212792   -0.013507484251
 H    0.901822906064    7.338246185291   -0.016012082793
 C    1.713885288403    4.021159781238   -0.015631686588
 O    2.757628535721    3.367917891177   -0.018112527900
 N    0.440047199722    3.479020149645   -0.005018452458
 C   -0.617638913091    4.280372180520   -0.007511497286
 N   -1.849632029547    3.676573151440   -0.052917320495
 H   -1.858566497868    2.676879264929    0.116653288070
 H   -2.668209773750    4.203001470840    0.221982804302
 C   -0.549056914657    5.721749019715   -0.010994930952
 H   -1.437580630342    6.353066610959   -0.020476884979
 H    2.739689132012    5.815078455406   -0.019955251700
CS   -0.468486392130   -3.764202215407    0.012200226114
