14

 N    1.802529519593    5.494487402545   -0.016777860826
 C    0.717082576690    6.317246372373   -0.013635989605
 H    0.908603416572    7.392303344872   -0.016140588147
 C    1.720665798911    4.075216940819   -0.015760191942
 O    2.764409046229    3.421975050758   -0.018241033254
 N    0.446827710230    3.533077309226   -0.005146957812
 C   -0.610858402583    4.334429340101   -0.007640002640
 N   -1.842851519039    3.730630311021   -0.053045825849
 H   -1.851785987360    2.730936424510    0.116524782716
 H   -2.661429263242    4.257058630421    0.221854298948
 C   -0.542276404149    5.775806179296   -0.011123436306
 H   -1.430800119834    6.407123770540   -0.020605390333
 H    2.746469642520    5.869135614987   -0.020083757054
CS   -0.474151547264   -3.809367280005    0.012307593070
