14

 N    1.809310030102    5.548544562126   -0.016906366180
 C    0.723863087199    6.371303531954   -0.013764494959
 H    0.915383927081    7.446360504453   -0.016269093501
 C    1.727446309420    4.129274100400   -0.015888697296
 O    2.771189556738    3.476032210339   -0.018369538608
 N    0.453608220739    3.587134468807   -0.005275463166
 C   -0.604077892074    4.388486499682   -0.007768507994
 N   -1.836071008530    3.784687470602   -0.053174331203
 H   -1.845005476851    2.784993584091    0.116396277362
 H   -2.654648752733    4.311115790002    0.221725793594
 C   -0.535495893640    5.829863338877   -0.011251941660
 H   -1.424019609325    6.461180930121   -0.020733895687
 H    2.753250153029    5.923192774568   -0.020212262408
CS   -0.479816702397   -3.854532344602    0.012414960025
