14

 N    1.829651561626    5.710716040869   -0.017291882243
 C    0.744204618723    6.533475010697   -0.014150011022
 H    0.935725458605    7.608531983196   -0.016654609564
 C    1.747787840944    4.291445579143   -0.016274213359
 O    2.791531088262    3.638203689082   -0.018755054671
 N    0.473949752263    3.749305947550   -0.005660979229
 C   -0.583736360550    4.550657978425   -0.008154024057
 N   -1.815729477006    3.946858949345   -0.053559847266
 H   -1.824663945327    2.947165062834    0.116010761299
 H   -2.634307221209    4.473287268745    0.221340277531
 C   -0.515154362116    5.992034817620   -0.011637457723
 H   -1.403678077801    6.623352408864   -0.021119411750
 H    2.773591684553    6.085364253311   -0.020597778471
CS   -0.496812167798   -3.990027538395    0.012737060890
