14

 N    1.849993093151    5.872887519612   -0.017677398305
 C    0.764546150248    6.695646489440   -0.014535527084
 H    0.956066990130    7.770703461939   -0.017040125626
 C    1.768129372469    4.453617057886   -0.016659729421
 O    2.811872619787    3.800375167825   -0.019140570733
 N    0.494291283788    3.911477426293   -0.006046495291
 C   -0.563394829025    4.712829457168   -0.008539540119
 N   -1.795387945481    4.109030428088   -0.053945363328
 H   -1.804322413802    3.109336541577    0.115625245237
 H   -2.613965689684    4.635458747488    0.220954761469
 C   -0.494812830591    6.154206296363   -0.012022973785
 H   -1.383336546276    6.785523887607   -0.021504927812
 H    2.793933216078    6.247535732054   -0.020983294533
CS   -0.513807633199   -4.125522732189    0.013059161755
