14

 N    1.856773603659    5.926944679194   -0.017805903659
 C    0.771326660756    6.749703649022   -0.014664032438
 H    0.962847500638    7.824760621521   -0.017168630980
 C    1.774909882977    4.507674217468   -0.016788234775
 O    2.818653130295    3.854432327407   -0.019269076087
 N    0.501071794296    3.965534585875   -0.006175000645
 C   -0.556614318517    4.766886616750   -0.008668045473
 N   -1.788607434973    4.163087587670   -0.054073868682
 H   -1.797541903294    3.163393701159    0.115496739883
 H   -2.607185179176    4.689515907070    0.220826256115
 C   -0.488032320083    6.208263455945   -0.012151479139
 H   -1.376556035768    6.839581047189   -0.021633433166
 H    2.800713726586    6.301592891636   -0.021111799887
CS   -0.519472788333   -4.170687796786    0.013166528710
