14

 N    1.904237177216    6.305344796261   -0.018705441139
 C    0.818790234313    7.128103766089   -0.015563569918
 H    1.010311074195    8.203160738588   -0.018068168460
 C    1.822373456534    4.886074334535   -0.017687772255
 O    2.866116703852    4.232832444474   -0.020168613567
 N    0.548535367853    4.343934702942   -0.007074538125
 C   -0.509150744960    5.145286733817   -0.009567582953
 N   -1.741143861416    4.541487704737   -0.054973406162
 H   -1.750078329737    3.541793818226    0.114597202403
 H   -2.559721605619    5.067916024137    0.219926718635
 C   -0.440568746526    6.586663573012   -0.013051016619
 H   -1.329092462211    7.217981164256   -0.022532970646
 H    2.848177300143    6.679993008703   -0.022011337367
CS   -0.559128874268   -4.486843248970    0.013918097395
