14

 N    1.951700750774    6.683744913329   -0.019604978618
 C    0.866253807871    7.506503883157   -0.016463107397
 H    1.057774647753    8.581560855656   -0.018967705939
 C    1.869837030092    5.264474451603   -0.018587309734
 O    2.913580277410    4.611232561542   -0.021068151046
 N    0.595998941411    4.722334820010   -0.007974075604
 C   -0.461687171402    5.523686850885   -0.010467120432
 N   -1.693680287858    4.919887821805   -0.055872943641
 H   -1.702614756179    3.920193935294    0.113697664924
 H   -2.512258032061    5.446316141205    0.219027181156
 C   -0.393105172968    6.965063690080   -0.013950554098
 H   -1.281628888653    7.596381281324   -0.023432508125
 H    2.895640873701    7.058393125771   -0.022910874846
CS   -0.598784960203   -4.802998701154    0.014669666080
