8

 N   -0.469430189128   -0.002556633551    0.109114785711
 H   -0.874079189128    0.816052366449    0.558410785711
 H   -0.874079189128   -0.821165633551    0.558410785711
 C    0.991007810872   -0.002556633551    0.247151785711
 H    1.390110810872   -0.884497633551   -0.259237214289
 H    1.359688810872   -0.002556633551    1.282981785711
 H    1.390110810872    0.879384366449   -0.259237214289
LI   -1.101637950055    0.011311785779   -0.910748447262
