8

 N   -0.459717933687   -0.002769686347    0.124782376090
 H   -0.864366933687    0.815839313653    0.574078376090
 H   -0.864366933687   -0.821378686347    0.574078376090
 C    1.000720066313   -0.002769686347    0.262819376090
 H    1.399823066313   -0.884710686347   -0.243569623910
 H    1.369401066313   -0.002769686347    1.298649376090
 H    1.399823066313    0.879171313653   -0.243569623910
LI   -1.144609674692    0.012254434594   -0.980069459630
