8

 N   -0.430581167366   -0.003408844735    0.171785147228
 H   -0.835230167366    0.815200155265    0.621081147228
 H   -0.835230167366   -0.822017844735    0.621081147228
 C    1.029856832634   -0.003408844735    0.309822147228
 H    1.428959832634   -0.885349844735   -0.196566852772
 H    1.398537832634   -0.003408844735    1.345652147228
 H    1.428959832634    0.878532155265   -0.196566852772
LI   -1.273524848602    0.015082381039   -1.188032496735
