8

 N   -0.411156656485   -0.003834950327    0.203120327987
 H   -0.815805656485    0.814774049673    0.652416327987
 H   -0.815805656485   -0.822443950327    0.652416327987
 C    1.049281343515   -0.003834950327    0.341157327987
 H    1.448384343515   -0.885775950327   -0.165231672013
 H    1.417962343515   -0.003834950327    1.376987327987
 H    1.448384343515    0.878106049673   -0.165231672013
LI   -1.359468297876    0.016967678668   -1.326674521471
