8

 N   -0.391732145604   -0.004261055919    0.234455508746
 H   -0.796381145604    0.814347944081    0.683751508746
 H   -0.796381145604   -0.822870055919    0.683751508746
 C    1.068705854396   -0.004261055919    0.372492508746
 H    1.467808854396   -0.886202055919   -0.133896491254
 H    1.437386854396   -0.004261055919    1.408322508746
 H    1.467808854396    0.877679944081   -0.133896491254
LI   -1.445411747150    0.018852976298   -1.465316546207
