8

 N   -0.382019890164   -0.004474108715    0.250123099126
 H   -0.786668890164    0.814134891285    0.699419099126
 H   -0.786668890164   -0.823083108715    0.699419099126
 C    1.078418109836   -0.004474108715    0.388160099126
 H    1.477521109836   -0.886415108715   -0.118228900874
 H    1.447099109836   -0.004474108715    1.423990099126
 H    1.477521109836    0.877466891285   -0.118228900874
LI   -1.488383471786    0.019795625113   -1.534637558576
