8

 N   -0.323746357521   -0.005752425491    0.344128641403
 H   -0.728395357521    0.812856574509    0.793424641403
 H   -0.728395357521   -0.824361425491    0.793424641403
 C    1.136691642479   -0.005752425491    0.482165641403
 H    1.535794642479   -0.887693425491   -0.024223358597
 H    1.505372642479   -0.005752425491    1.517995641403
 H    1.535794642479    0.876188574509   -0.024223358597
LI   -1.746213819608    0.025451518003   -1.950563632785
