8

 N   -0.284897335760   -0.006604636675    0.406799002920
 H   -0.689546335760    0.812004363325    0.856095002920
 H   -0.689546335760   -0.825213636675    0.856095002920
 C    1.175540664240   -0.006604636675    0.544836002920
 H    1.574643664240   -0.888545636675    0.038447002920
 H    1.544221664240   -0.006604636675    1.580666002920
 H    1.574643664240    0.875336363325    0.038447002920
LI   -1.918100718155    0.029222113262   -2.227847682258
