8

 N   -0.275185080319   -0.006817689471    0.422466593300
 H   -0.679834080319    0.811791310529    0.871762593300
 H   -0.679834080319   -0.825426689471    0.871762593300
 C    1.185252919681   -0.006817689471    0.560503593300
 H    1.584355919681   -0.888758689471    0.054114593300
 H    1.553933919681   -0.006817689471    1.596333593300
 H    1.584355919681    0.875123310529    0.054114593300
LI   -1.961072442792    0.030164762077   -2.297168694626
