8

 N   -0.265472824879   -0.007030742267    0.438134183679
 H   -0.670121824879    0.811578257733    0.887430183679
 H   -0.670121824879   -0.825639742267    0.887430183679
 C    1.194965175121   -0.007030742267    0.576171183679
 H    1.594068175121   -0.888971742267    0.069782183679
 H    1.563646175121   -0.007030742267    1.612001183679
 H    1.594068175121    0.874910257733    0.069782183679
LI   -2.004044167429    0.031107410892   -2.366489706994
