8

 N   -0.216911547677   -0.008096006246    0.516472135577
 H   -0.621560547677    0.810512993754    0.965768135577
 H   -0.621560547677   -0.826705006246    0.965768135577
 C    1.243526452323   -0.008096006246    0.654509135577
 H    1.642629452323   -0.890037006246    0.148120135577
 H    1.612207452323   -0.008096006246    1.690339135577
 H    1.642629452323    0.873844993754    0.148120135577
LI   -2.218902790613    0.035820654967   -2.713094768835
