8

 N   -0.207199292236   -0.008309059042    0.532139725956
 H   -0.611848292236    0.810299940958    0.981435725956
 H   -0.611848292236   -0.826918059042    0.981435725956
 C    1.253238707764   -0.008309059042    0.670176725956
 H    1.652341707764   -0.890250059042    0.163787725956
 H    1.621919707764   -0.008309059042    1.706006725956
 H    1.652341707764    0.873631940958    0.163787725956
LI   -2.261874515250    0.036763303781   -2.782415781204
