8

 N   -0.187774781355   -0.008735164634    0.563474906715
 H   -0.592423781355    0.809873835366    1.012770906715
 H   -0.592423781355   -0.827344164634    1.012770906715
 C    1.272663218645   -0.008735164634    0.701511906715
 H    1.671766218645   -0.890676164634    0.195122906715
 H    1.641344218645   -0.008735164634    1.737341906715
 H    1.671766218645    0.873205835366    0.195122906715
LI   -2.347817964523    0.038648601411   -2.921057805940
