8

 N   -0.168350270474   -0.009161270226    0.594810087474
 H   -0.572999270474    0.809447729774    1.044106087474
 H   -0.572999270474   -0.827770270226    1.044106087474
 C    1.292087729526   -0.009161270226    0.732847087474
 H    1.691190729526   -0.891102270226    0.226458087474
 H    1.660768729526   -0.009161270226    1.768677087474
 H    1.691190729526    0.872779729774    0.226458087474
LI   -2.433761413797    0.040533899041   -3.059699830677
