8

 N   -0.129501248713   -0.010013481410    0.657480448992
 H   -0.534150248713    0.808595518590    1.106776448992
 H   -0.534150248713   -0.828622481410    1.106776448992
 C    1.330936751287   -0.010013481410    0.795517448992
 H    1.730039751287   -0.891954481410    0.289128448992
 H    1.699617751287   -0.010013481410    1.831347448992
 H    1.730039751287    0.871927518590    0.289128448992
LI   -2.605648312344    0.044304494301   -3.336983880149
