8

 N   -0.119788993272   -0.010226534206    0.673148039371
 H   -0.524437993272    0.808382465794    1.122444039371
 H   -0.524437993272   -0.828835534206    1.122444039371
 C    1.340649006728   -0.010226534206    0.811185039371
 H    1.739752006728   -0.892167534206    0.304796039371
 H    1.709330006728   -0.010226534206    1.847015039371
 H    1.739752006728    0.871714465794    0.304796039371
LI   -2.648620036981    0.045247143116   -3.406304892518
