8

 N   -0.100364482391   -0.010652639798    0.704483220130
 H   -0.505013482391    0.807956360202    1.153779220130
 H   -0.505013482391   -0.829261639798    1.153779220130
 C    1.360073517609   -0.010652639798    0.842520220130
 H    1.759176517609   -0.892593639798    0.336131220130
 H    1.728754517609   -0.010652639798    1.878350220130
 H    1.759176517609    0.871288360202    0.336131220130
LI   -2.734563486255    0.047132440745   -3.544946917254
