8

 N   -0.071227716070   -0.011291798186    0.751485991269
 H   -0.475876716070    0.807317201814    1.200781991269
 H   -0.475876716070   -0.829900798186    1.200781991269
 C    1.389210283930   -0.011291798186    0.889522991269
 H    1.788313283930   -0.893232798186    0.383133991269
 H    1.757891283930   -0.011291798186    1.925352991269
 H    1.788313283930    0.870649201814    0.383133991269
LI   -2.863478660165    0.049960387190   -3.752909954359
