8

 N   -0.051803205189   -0.011717903778    0.782821172028
 H   -0.456452205189    0.806891096222    1.232117172028
 H   -0.456452205189   -0.830326903778    1.232117172028
 C    1.408634794811   -0.011717903778    0.920858172028
 H    1.807737794811   -0.893658903778    0.414469172028
 H    1.777315794811   -0.011717903778    1.956688172028
 H    1.807737794811    0.870223096222    0.414469172028
LI   -2.949422109439    0.051845684820   -3.891551979095
