8

 N    0.025894838334   -0.013422326145    0.908161895063
 H   -0.378754161666    0.805186673855    1.357457895063
 H   -0.378754161666   -0.832031326145    1.357457895063
 C    1.486332838334   -0.013422326145    1.046198895063
 H    1.885435838334   -0.895363326145    0.539809895063
 H    1.855013838334   -0.013422326145    2.082028895063
 H    1.885435838334    0.868518673855    0.539809895063
LI   -3.293195906534    0.059386875339   -4.446120078041
