8

 N    0.045319349215   -0.013848431737    0.939497075822
 H   -0.359329650785    0.804760568263    1.388793075822
 H   -0.359329650785   -0.832457431737    1.388793075822
 C    1.505757349215   -0.013848431737    1.077534075822
 H    1.904860349215   -0.895789431737    0.571145075822
 H    1.874438349215   -0.013848431737    2.113364075822
 H    1.904860349215    0.868092568263    0.571145075822
LI   -3.379139355808    0.061272172969   -4.584762102777
