8

 N    0.055031604655   -0.014061484533    0.955164666202
 H   -0.349617395345    0.804547515467    1.404460666202
 H   -0.349617395345   -0.832670484533    1.404460666202
 C    1.515469604655   -0.014061484533    1.093201666202
 H    1.914572604655   -0.896002484533    0.586812666202
 H    1.884150604655   -0.014061484533    2.129031666202
 H    1.914572604655    0.867879515467    0.586812666202
LI   -3.422111080444    0.062214821784   -4.654083115146
