8

 N    0.074456115536   -0.014487590125    0.986499846961
 H   -0.330192884464    0.804121409875    1.435795846961
 H   -0.330192884464   -0.833096590125    1.435795846961
 C    1.534894115536   -0.014487590125    1.124536846961
 H    1.933997115536   -0.896428590125    0.618147846961
 H    1.903575115536   -0.014487590125    2.160366846961
 H    1.933997115536    0.867453409875    0.618147846961
LI   -3.508054529718    0.064100119414   -4.792725139882
