8

 N    0.113305137298   -0.015339801309    1.049170208478
 H   -0.291343862702    0.803269198691    1.498466208478
 H   -0.291343862702   -0.833948801309    1.498466208478
 C    1.573743137298   -0.015339801309    1.187207208478
 H    1.972846137298   -0.897280801309    0.680818208478
 H    1.942424137298   -0.015339801309    2.223037208478
 H    1.972846137298    0.866601198691    0.680818208478
LI   -3.679941428266    0.067870714673   -5.070009189355
