8

 N    0.171578669941   -0.016618118085    1.143175750755
 H   -0.233070330059    0.801990881915    1.592471750755
 H   -0.233070330059   -0.835227118085    1.592471750755
 C    1.632016669941   -0.016618118085    1.281212750755
 H    2.031119669941   -0.898559118085    0.774823750755
 H    2.000697669941   -0.016618118085    2.317042750755
 H    2.031119669941    0.865322881915    0.774823750755
LI   -3.937771776087    0.073526607563   -5.485935263564
