8

 N    0.181290925381   -0.016831170881    1.158843341135
 H   -0.223358074619    0.801777829119    1.608139341135
 H   -0.223358074619   -0.835440170881    1.608139341135
 C    1.641728925381   -0.016831170881    1.296880341135
 H    2.040831925381   -0.898772170881    0.790491341135
 H    2.010409925381   -0.016831170881    2.332710341135
 H    2.040831925381    0.865109829119    0.790491341135
LI   -3.980743500723    0.074469256378   -5.555256275933
