8

 N    0.249276713464   -0.018322540452    1.268516473791
 H   -0.155372286536    0.800286459548    1.717812473791
 H   -0.155372286536   -0.836931540452    1.717812473791
 C    1.709714713464   -0.018322540452    1.406553473791
 H    2.108817713464   -0.900263540452    0.900164473791
 H    2.078395713464   -0.018322540452    2.442383473791
 H    2.108817713464    0.863618459548    0.900164473791
LI   -4.281545573181    0.081067798082   -6.040503362510
