8

 N    0.268701224345   -0.018748646044    1.299851654550
 H   -0.135947775655    0.799860353956    1.749147654550
 H   -0.135947775655   -0.837357646044    1.749147654550
 C    1.729139224345   -0.018748646044    1.437888654550
 H    2.128242224345   -0.900689646044    0.931499654550
 H    2.097820224345   -0.018748646044    2.473718654550
 H    2.128242224345    0.863192353956    0.931499654550
LI   -4.367489022455    0.082953095712   -6.179145387247
