8

 N    0.326974756987   -0.020026962820    1.393857196827
 H   -0.077674243013    0.798582037180    1.843153196827
 H   -0.077674243013   -0.838635962820    1.843153196827
 C    1.787412756987   -0.020026962820    1.531894196827
 H    2.186515756987   -0.901967962820    1.025505196827
 H    2.156093756987   -0.020026962820    2.567724196827
 H    2.186515756987    0.861914037180    1.025505196827
LI   -4.625319370276    0.088608988602   -6.595071461456
