8

 N    0.336687012428   -0.020240015616    1.409524787206
 H   -0.067961987572    0.798368984384    1.858820787206
 H   -0.067961987572   -0.838849015616    1.858820787206
 C    1.797125012428   -0.020240015616    1.547561787206
 H    2.196228012428   -0.902181015616    1.041172787206
 H    2.165806012428   -0.020240015616    2.583391787206
 H    2.196228012428    0.861700984384    1.041172787206
LI   -4.668291094913    0.089551637416   -6.664392473824
