8

 N    0.365823778749   -0.020879174004    1.456527558345
 H   -0.038825221251    0.797729825996    1.905823558345
 H   -0.038825221251   -0.839488174004    1.905823558345
 C    1.826261778749   -0.020879174004    1.594564558345
 H    2.225364778749   -0.902820174004    1.088175558345
 H    2.194942778749   -0.020879174004    2.630394558345
 H    2.225364778749    0.861061825996    1.088175558345
LI   -4.797206268823    0.092379583861   -6.872355510929
