8

 N    0.375536034190   -0.021092226800    1.472195148724
 H   -0.029112965810    0.797516773200    1.921491148724
 H   -0.029112965810   -0.839701226800    1.921491148724
 C    1.835974034190   -0.021092226800    1.610232148724
 H    2.235077034190   -0.903033226800    1.103843148724
 H    2.204655034190   -0.021092226800    2.646062148724
 H    2.235077034190    0.860848773200    1.103843148724
LI   -4.840177993460    0.093322232676   -6.941676523297
