18

 C   -3.084526958818    2.933094801847    0.000000000000
 H   -3.663776958818    3.861864801847    0.000000000000
 H   -3.328636958818    2.332914801847    0.887690000000
 H   -3.328636958818    2.332914801847   -0.887690000000
 C   -1.624636958818    3.269724801847    0.000000000000
 O   -1.120116958818    4.368784801847    0.000000000000
 O   -0.804846958818    2.115114801847    0.000000000000
 H    0.081303041182    2.521104801847    0.000000000000
RB    0.443223041182   -1.164775198153    2.951760000000
RB    0.443223041182   -1.164775198153   -2.951760000000
 O   -0.449204090902    1.180492872669    0.000000000000
 H   -1.335348953960    0.774504744671    0.000000000000
 C    0.370583739279    0.025885928689    0.000000000000
 O   -0.133941121900   -1.073174448794    0.000000000000
 C    1.830473919669    0.362522084207    0.000000000000
 H    2.409719080209   -0.566253563617    0.000000000000
 H    2.074586408198    0.962694522045   -0.887695408236
 H    2.074586408198    0.962694522045    0.887695408236
