18

 C   -3.106619337881    2.991153106407    0.000000000000
 H   -3.685869337881    3.919923106407    0.000000000000
 H   -3.350729337881    2.390973106407    0.887690000000
 H   -3.350729337881    2.390973106407   -0.887690000000
 C   -1.646729337881    3.327783106407    0.000000000000
 O   -1.142209337881    4.426843106407    0.000000000000
 O   -0.826939337881    2.173173106407    0.000000000000
 H    0.059210662119    2.579163106407    0.000000000000
RB    0.421130662119   -1.106716893593    2.951760000000
RB    0.421130662119   -1.106716893593   -2.951760000000
 O   -0.364603609590    0.958164598475    0.000000000000
 H   -1.250748472649    0.552176470477    0.000000000000
 C    0.455184220591   -0.196442345505    0.000000000000
 O   -0.049340640588   -1.295502722987    0.000000000000
 C    1.915074400980    0.140193810014    0.000000000000
 H    2.494319561520   -0.788581837810    0.000000000000
 H    2.159186889510    0.740366247851   -0.887695408236
 H    2.159186889510    0.740366247851    0.887695408236
