18

 C   -3.113983464235    3.010505874594    0.000000000000
 H   -3.693233464235    3.939275874594    0.000000000000
 H   -3.358093464235    2.410325874594    0.887690000000
 H   -3.358093464235    2.410325874594   -0.887690000000
 C   -1.654093464235    3.347135874594    0.000000000000
 O   -1.149573464235    4.446195874594    0.000000000000
 O   -0.834303464235    2.192525874594    0.000000000000
 H    0.051846535765    2.598515874594    0.000000000000
RB    0.413766535765   -1.087364125406    2.951760000000
RB    0.413766535765   -1.087364125406   -2.951760000000
 O   -0.336403449153    0.884055173744    0.000000000000
 H   -1.222548312211    0.478067045746    0.000000000000
 C    0.483384381028   -0.270551770236    0.000000000000
 O   -0.021140480151   -1.369612147719    0.000000000000
 C    1.943274561417    0.066084385283    0.000000000000
 H    2.522519721958   -0.862691262541    0.000000000000
 H    2.187387049947    0.666256823120   -0.887695408236
 H    2.187387049947    0.666256823120    0.887695408236
