18

 C   -3.128711716944    3.049211410967    0.000000000000
 H   -3.707961716944    3.977981410967    0.000000000000
 H   -3.372821716944    2.449031410967    0.887690000000
 H   -3.372821716944    2.449031410967   -0.887690000000
 C   -1.668821716944    3.385841410967    0.000000000000
 O   -1.164301716944    4.484901410967    0.000000000000
 O   -0.849031716944    2.231231410967    0.000000000000
 H    0.037118283056    2.637221410967    0.000000000000
RB    0.399038283056   -1.048658589033    2.951760000000
RB    0.399038283056   -1.048658589033   -2.951760000000
 O   -0.280003128279    0.735836324282    0.000000000000
 H   -1.166147991337    0.329848196284    0.000000000000
 C    0.539784701902   -0.418770619698    0.000000000000
 O    0.035259840723   -1.517830997181    0.000000000000
 C    1.999674882292   -0.082134464180    0.000000000000
 H    2.578920042832   -1.010910112004    0.000000000000
 H    2.243787370821    0.518037973658   -0.887695408236
 H    2.243787370821    0.518037973658    0.887695408236
