18

 C   -3.136075843298    3.068564179154    0.000000000000
 H   -3.715325843298    3.997334179154    0.000000000000
 H   -3.380185843298    2.468384179154    0.887690000000
 H   -3.380185843298    2.468384179154   -0.887690000000
 C   -1.676185843298    3.405194179154    0.000000000000
 O   -1.171665843298    4.504254179154    0.000000000000
 O   -0.856395843298    2.250584179154    0.000000000000
 H    0.029754156702    2.656574179154    0.000000000000
RB    0.391674156702   -1.029305820846    2.951760000000
RB    0.391674156702   -1.029305820846   -2.951760000000
 O   -0.251802967842    0.661726899551    0.000000000000
 H   -1.137947830900    0.255738771552    0.000000000000
 C    0.567984862340   -0.492880044429    0.000000000000
 O    0.063460001160   -1.591940421912    0.000000000000
 C    2.027875042729   -0.156243888911    0.000000000000
 H    2.607120203269   -1.085019536735    0.000000000000
 H    2.271987531259    0.443928548927   -0.887695408236
 H    2.271987531259    0.443928548927    0.887695408236
