18

 C   -3.165532348715    3.145975251900    0.000000000000
 H   -3.744782348715    4.074745251900    0.000000000000
 H   -3.409642348715    2.545795251900    0.887690000000
 H   -3.409642348715    2.545795251900   -0.887690000000
 C   -1.705642348715    3.482605251900    0.000000000000
 O   -1.201122348715    4.581665251900    0.000000000000
 O   -0.885852348715    2.327995251900    0.000000000000
 H    0.000297651285    2.733985251900    0.000000000000
RB    0.362217651285   -0.951894748100    2.951760000000
RB    0.362217651285   -0.951894748100   -2.951760000000
 O   -0.139002326093    0.365289200626    0.000000000000
 H   -1.025147189151   -0.040698927372    0.000000000000
 C    0.680785504088   -0.789317743354    0.000000000000
 O    0.176260642909   -1.888378120837    0.000000000000
 C    2.140675684478   -0.452681587836    0.000000000000
 H    2.719920845018   -1.381457235660    0.000000000000
 H    2.384788173007    0.147490850002   -0.887695408236
 H    2.384788173007    0.147490850002    0.887695408236
