18

 C   -3.202352980487    3.242739092833    0.000000000000
 H   -3.781602980487    4.171509092833    0.000000000000
 H   -3.446462980487    2.642559092833    0.887690000000
 H   -3.446462980487    2.642559092833   -0.887690000000
 C   -1.742462980487    3.579369092833    0.000000000000
 O   -1.237942980487    4.678429092833    0.000000000000
 O   -0.922672980487    2.424759092833    0.000000000000
 H   -0.036522980487    2.830749092833    0.000000000000
RB    0.325397019513   -0.855130907167    2.951760000000
RB    0.325397019513   -0.855130907167   -2.951760000000
 O    0.001998476093   -0.005257923030    0.000000000000
 H   -0.884146386965   -0.411246051028    0.000000000000
 C    0.821786306275   -1.159864867010    0.000000000000
 O    0.317261445095   -2.258925244493    0.000000000000
 C    2.281676486664   -0.823228711492    0.000000000000
 H    2.860921647204   -1.752004359315    0.000000000000
 H    2.525788975194   -0.223056273654   -0.887695408236
 H    2.525788975194   -0.223056273654    0.887695408236
