18

 C   -3.209717106841    3.262091861020    0.000000000000
 H   -3.788967106841    4.190861861020    0.000000000000
 H   -3.453827106841    2.661911861020    0.887690000000
 H   -3.453827106841    2.661911861020   -0.887690000000
 C   -1.749827106841    3.598721861020    0.000000000000
 O   -1.245307106841    4.697781861020    0.000000000000
 O   -0.930037106841    2.444111861020    0.000000000000
 H   -0.043887106841    2.850101861020    0.000000000000
RB    0.318032893159   -0.835778138980    2.951760000000
RB    0.318032893159   -0.835778138980   -2.951760000000
 O    0.030198636531   -0.079367347761    0.000000000000
 H   -0.855946226528   -0.485355475759    0.000000000000
 C    0.849986466712   -1.233974291741    0.000000000000
 O    0.345461605533   -2.333034669224    0.000000000000
 C    2.309876647101   -0.897338136223    0.000000000000
 H    2.889121807641   -1.826113784047    0.000000000000
 H    2.553989135631   -0.297165698385   -0.887695408236
 H    2.553989135631   -0.297165698385    0.887695408236
