18

 C   -3.224445359550    3.300797397393    0.000000000000
 H   -3.803695359550    4.229567397393    0.000000000000
 H   -3.468555359550    2.700617397393    0.887690000000
 H   -3.468555359550    2.700617397393   -0.887690000000
 C   -1.764555359550    3.637427397393    0.000000000000
 O   -1.260035359550    4.736487397393    0.000000000000
 O   -0.944765359550    2.482817397393    0.000000000000
 H   -0.058615359550    2.888807397393    0.000000000000
RB    0.303304640450   -0.797072602607    2.951760000000
RB    0.303304640450   -0.797072602607   -2.951760000000
 O    0.086598957405   -0.227586197224    0.000000000000
 H   -0.799545905653   -0.633574325222    0.000000000000
 C    0.906386787586   -1.382193141204    0.000000000000
 O    0.401861926407   -2.481253518686    0.000000000000
 C    2.366276967976   -1.045556985685    0.000000000000
 H    2.945522128516   -1.974332633509    0.000000000000
 H    2.610389456505   -0.445384547848   -0.887695408236
 H    2.610389456505   -0.445384547848    0.887695408236
