18

 C   -3.231809485904    3.320150165580    0.000000000000
 H   -3.811059485904    4.248920165580    0.000000000000
 H   -3.475919485904    2.719970165580    0.887690000000
 H   -3.475919485904    2.719970165580   -0.887690000000
 C   -1.771919485904    3.656780165580    0.000000000000
 O   -1.267399485904    4.755840165580    0.000000000000
 O   -0.952129485904    2.502170165580    0.000000000000
 H   -0.065979485904    2.908160165580    0.000000000000
RB    0.295940514096   -0.777719834420    2.951760000000
RB    0.295940514096   -0.777719834420   -2.951760000000
 O    0.114799117842   -0.301695621955    0.000000000000
 H   -0.771345745216   -0.707683749953    0.000000000000
 C    0.934586948023   -1.456302565935    0.000000000000
 O    0.430062086844   -2.555362943417    0.000000000000
 C    2.394477128413   -1.119666410416    0.000000000000
 H    2.973722288953   -2.048442058240    0.000000000000
 H    2.638589616942   -0.519493972579   -0.887695408236
 H    2.638589616942   -0.519493972579    0.887695408236
