18

 C   -3.239173612259    3.339502933767    0.000000000000
 H   -3.818423612259    4.268272933767    0.000000000000
 H   -3.483283612259    2.739322933767    0.887690000000
 H   -3.483283612259    2.739322933767   -0.887690000000
 C   -1.779283612259    3.676132933767    0.000000000000
 O   -1.274763612259    4.775192933767    0.000000000000
 O   -0.959493612259    2.521522933767    0.000000000000
 H   -0.073343612259    2.927512933767    0.000000000000
RB    0.288576387741   -0.758367066233    2.951760000000
RB    0.288576387741   -0.758367066233   -2.951760000000
 O    0.142999278280   -0.375805046686    0.000000000000
 H   -0.743145584779   -0.781793174684    0.000000000000
 C    0.962787108461   -1.530411990666    0.000000000000
 O    0.458262247282   -2.629472368149    0.000000000000
 C    2.422677288850   -1.193775835147    0.000000000000
 H    3.001922449390   -2.122551482971    0.000000000000
 H    2.666789777380   -0.593603397310   -0.887695408236
 H    2.666789777380   -0.593603397310    0.887695408236
