18

 C   -3.253901864967    3.378208470140    0.000000000000
 H   -3.833151864967    4.306978470140    0.000000000000
 H   -3.498011864967    2.778028470140    0.887690000000
 H   -3.498011864967    2.778028470140   -0.887690000000
 C   -1.794011864967    3.714838470140    0.000000000000
 O   -1.289491864967    4.813898470140    0.000000000000
 O   -0.974221864967    2.560228470140    0.000000000000
 H   -0.088071864967    2.966218470140    0.000000000000
RB    0.273848135033   -0.719661529860    2.951760000000
RB    0.273848135033   -0.719661529860   -2.951760000000
 O    0.199399599154   -0.524023896148    0.000000000000
 H   -0.686745263904   -0.930012024146    0.000000000000
 C    1.019187429335   -1.678630840128    0.000000000000
 O    0.514662568156   -2.777691217611    0.000000000000
 C    2.479077609725   -1.341994684610    0.000000000000
 H    3.058322770265   -2.270770332434    0.000000000000
 H    2.723190098254   -0.741822246772   -0.887695408236
 H    2.723190098254   -0.741822246772    0.887695408236
