18

 C   -3.290722496739    3.474972311073    0.000000000000
 H   -3.869972496739    4.403742311073    0.000000000000
 H   -3.534832496739    2.874792311073    0.887690000000
 H   -3.534832496739    2.874792311073   -0.887690000000
 C   -1.830832496739    3.811602311073    0.000000000000
 O   -1.326312496739    4.910662311073    0.000000000000
 O   -1.011042496739    2.656992311073    0.000000000000
 H   -0.124892496739    3.062982311073    0.000000000000
RB    0.237027503261   -0.622897688927    2.951760000000
RB    0.237027503261   -0.622897688927   -2.951760000000
 O    0.340400401340   -0.894571019804    0.000000000000
 H   -0.545744461718   -1.300559147802    0.000000000000
 C    1.160188231521   -2.049177963784    0.000000000000
 O    0.655663370342   -3.148238341267    0.000000000000
 C    2.620078411911   -1.712541808266    0.000000000000
 H    3.199323572451   -2.641317456090    0.000000000000
 H    2.864190900440   -1.112369370428   -0.887695408236
 H    2.864190900440   -1.112369370428    0.887695408236
