18

 C   -3.298086623093    3.494325079260    0.000000000000
 H   -3.877336623093    4.423095079260    0.000000000000
 H   -3.542196623093    2.894145079260    0.887690000000
 H   -3.542196623093    2.894145079260   -0.887690000000
 C   -1.838196623093    3.830955079260    0.000000000000
 O   -1.333676623093    4.930015079260    0.000000000000
 O   -1.018406623093    2.676345079260    0.000000000000
 H   -0.132256623093    3.082335079260    0.000000000000
RB    0.229663376907   -0.603544920740    2.951760000000
RB    0.229663376907   -0.603544920740   -2.951760000000
 O    0.368600561777   -0.968680444535    0.000000000000
 H   -0.517544301281   -1.374668572533    0.000000000000
 C    1.188388391958   -2.123287388515    0.000000000000
 O    0.683863530779   -3.222347765998    0.000000000000
 C    2.648278572348   -1.786651232997    0.000000000000
 H    3.227523732888   -2.715426880821    0.000000000000
 H    2.892391060877   -1.186478795159   -0.887695408236
 H    2.892391060877   -1.186478795159    0.887695408236
