18

 C   -3.320179002156    3.552383383820    0.000000000000
 H   -3.899429002156    4.481153383820    0.000000000000
 H   -3.564289002156    2.952203383820    0.887690000000
 H   -3.564289002156    2.952203383820   -0.887690000000
 C   -1.860289002156    3.889013383820    0.000000000000
 O   -1.355769002156    4.988073383820    0.000000000000
 O   -1.040499002156    2.734403383820    0.000000000000
 H   -0.154349002156    3.140393383820    0.000000000000
RB    0.207570997844   -0.545486616180    2.951760000000
RB    0.207570997844   -0.545486616180   -2.951760000000
 O    0.453201043089   -1.191008718729    0.000000000000
 H   -0.432943819969   -1.596996846727    0.000000000000
 C    1.272988873270   -2.345615662709    0.000000000000
 O    0.768464012091   -3.444676040191    0.000000000000
 C    2.732879053660   -2.008979507190    0.000000000000
 H    3.312124214200   -2.937755155014    0.000000000000
 H    2.976991542189   -1.408807069353   -0.887695408236
 H    2.976991542189   -1.408807069353    0.887695408236
