18

 C   -3.334907254865    3.591088920193    0.000000000000
 H   -3.914157254865    4.519858920193    0.000000000000
 H   -3.579017254865    2.990908920193    0.887690000000
 H   -3.579017254865    2.990908920193   -0.887690000000
 C   -1.875017254865    3.927718920193    0.000000000000
 O   -1.370497254865    5.026778920193    0.000000000000
 O   -1.055227254865    2.773108920193    0.000000000000
 H   -0.169077254865    3.179098920193    0.000000000000
RB    0.192842745135   -0.506781079807    2.951760000000
RB    0.192842745135   -0.506781079807   -2.951760000000
 O    0.509601363963   -1.339227568191    0.000000000000
 H   -0.376543499095   -1.745215696189    0.000000000000
 C    1.329389194144   -2.493834512171    0.000000000000
 O    0.824864332965   -3.592894889654    0.000000000000
 C    2.789279374534   -2.157198356653    0.000000000000
 H    3.368524535074   -3.085974004477    0.000000000000
 H    3.033391863063   -1.557025918815   -0.887695408236
 H    3.033391863063   -1.557025918815    0.887695408236
