18

 C   -3.379092012991    3.707205529313    0.000000000000
 H   -3.958342012991    4.635975529313    0.000000000000
 H   -3.623202012991    3.107025529313    0.887690000000
 H   -3.623202012991    3.107025529313   -0.887690000000
 C   -1.919202012991    4.043835529313    0.000000000000
 O   -1.414682012991    5.142895529313    0.000000000000
 O   -1.099412012991    2.889225529313    0.000000000000
 H   -0.213262012991    3.295215529313    0.000000000000
RB    0.148657987009   -0.390664470687    2.951760000000
RB    0.148657987009   -0.390664470687   -2.951760000000
 O    0.678802326587   -1.783884116578    0.000000000000
 H   -0.207342536472   -2.189872244576    0.000000000000
 C    1.498590156768   -2.938491060558    0.000000000000
 O    0.994065295589   -4.037551438041    0.000000000000
 C    2.958480337157   -2.601854905040    0.000000000000
 H    3.537725497697   -3.530630552864    0.000000000000
 H    3.202592825687   -2.001682467202   -0.887695408236
 H    3.202592825687   -2.001682467202    0.887695408236
