18

 C   -3.393820265700    3.745911065686    0.000000000000
 H   -3.973070265700    4.674681065686    0.000000000000
 H   -3.637930265700    3.145731065686    0.887690000000
 H   -3.637930265700    3.145731065686   -0.887690000000
 C   -1.933930265700    4.082541065686    0.000000000000
 O   -1.429410265700    5.181601065686    0.000000000000
 O   -1.114140265700    2.927931065686    0.000000000000
 H   -0.227990265700    3.333921065686    0.000000000000
RB    0.133929734300   -0.351958934314    2.951760000000
RB    0.133929734300   -0.351958934314   -2.951760000000
 O    0.735202647461   -1.932102966041    0.000000000000
 H   -0.150942215597   -2.338091094039    0.000000000000
 C    1.554990477642   -3.086709910021    0.000000000000
 O    1.050465616463   -4.185770287503    0.000000000000
 C    3.014880658032   -2.750073754502    0.000000000000
 H    3.594125818572   -3.678849402326    0.000000000000
 H    3.258993146561   -2.149901316665   -0.887695408236
 H    3.258993146561   -2.149901316665    0.887695408236
