18

 C   -3.401184392054    3.765263833873    0.000000000000
 H   -3.980434392054    4.694033833873    0.000000000000
 H   -3.645294392054    3.165083833873    0.887690000000
 H   -3.645294392054    3.165083833873   -0.887690000000
 C   -1.941294392054    4.101893833873    0.000000000000
 O   -1.436774392054    5.200953833873    0.000000000000
 O   -1.121504392054    2.947283833873    0.000000000000
 H   -0.235354392054    3.353273833873    0.000000000000
RB    0.126565607946   -0.332606166127    2.951760000000
RB    0.126565607946   -0.332606166127   -2.951760000000
 O    0.763402807898   -2.006212390772    0.000000000000
 H   -0.122742055160   -2.412200518770    0.000000000000
 C    1.583190638079   -3.160819334752    0.000000000000
 O    1.078665776900   -4.259879712234    0.000000000000
 C    3.043080818469   -2.824183179233    0.000000000000
 H    3.622325979009   -3.752958827057    0.000000000000
 H    3.287193306998   -2.224010741396   -0.887695408236
 H    3.287193306998   -2.224010741396    0.887695408236
