18

 C   -3.423276771117    3.823322138433    0.000000000000
 H   -4.002526771117    4.752092138433    0.000000000000
 H   -3.667386771117    3.223142138433    0.887690000000
 H   -3.667386771117    3.223142138433   -0.887690000000
 C   -1.963386771117    4.159952138433    0.000000000000
 O   -1.458866771117    5.259012138433    0.000000000000
 O   -1.143596771117    3.005342138433    0.000000000000
 H   -0.257446771117    3.411332138433    0.000000000000
RB    0.104473228883   -0.274547861567    2.951760000000
RB    0.104473228883   -0.274547861567   -2.951760000000
 O    0.848003289210   -2.228540664965    0.000000000000
 H   -0.038141573848   -2.634528792963    0.000000000000
 C    1.667791119391   -3.383147608945    0.000000000000
 O    1.163266258212   -4.482207986428    0.000000000000
 C    3.127681299781   -3.046511453427    0.000000000000
 H    3.706926460321   -3.975287101251    0.000000000000
 H    3.371793788310   -2.446339015589   -0.887695408236
 H    3.371793788310   -2.446339015589    0.887695408236
