18

 C   -3.438005023826    3.862027674806    0.000000000000
 H   -4.017255023826    4.790797674806    0.000000000000
 H   -3.682115023826    3.261847674806    0.887690000000
 H   -3.682115023826    3.261847674806   -0.887690000000
 C   -1.978115023826    4.198657674806    0.000000000000
 O   -1.473595023826    5.297717674806    0.000000000000
 O   -1.158325023826    3.044047674806    0.000000000000
 H   -0.272175023826    3.450037674806    0.000000000000
RB    0.089744976174   -0.235842325194    2.951760000000
RB    0.089744976174   -0.235842325194   -2.951760000000
 O    0.904403610084   -2.376759514428    0.000000000000
 H    0.018258747026   -2.782747642426    0.000000000000
 C    1.724191440265   -3.531366458408    0.000000000000
 O    1.219666579086   -4.630426835890    0.000000000000
 C    3.184081620655   -3.194730302889    0.000000000000
 H    3.763326781195   -4.123505950713    0.000000000000
 H    3.428194109185   -2.594557865052   -0.887695408236
 H    3.428194109185   -2.594557865052    0.887695408236
