18

 C   -3.445369150180    3.881380442993    0.000000000000
 H   -4.024619150180    4.810150442993    0.000000000000
 H   -3.689479150180    3.281200442993    0.887690000000
 H   -3.689479150180    3.281200442993   -0.887690000000
 C   -1.985479150180    4.218010442993    0.000000000000
 O   -1.480959150180    5.317070442993    0.000000000000
 O   -1.165689150180    3.063400442993    0.000000000000
 H   -0.279539150180    3.469390442993    0.000000000000
RB    0.082380849820   -0.216489557007    2.951760000000
RB    0.082380849820   -0.216489557007   -2.951760000000
 O    0.932603770522   -2.450868939159    0.000000000000
 H    0.046458907463   -2.856857067157    0.000000000000
 C    1.752391600703   -3.605475883139    0.000000000000
 O    1.247866739524   -4.704536260621    0.000000000000
 C    3.212281781092   -3.268839727620    0.000000000000
 H    3.791526941632   -4.197615375444    0.000000000000
 H    3.456394269622   -2.668667289783   -0.887695408236
 H    3.456394269622   -2.668667289783    0.887695408236
