18

 C   -3.452733276535    3.900733211179    0.000000000000
 H   -4.031983276535    4.829503211179    0.000000000000
 H   -3.696843276535    3.300553211179    0.887690000000
 H   -3.696843276535    3.300553211179   -0.887690000000
 C   -1.992843276535    4.237363211179    0.000000000000
 O   -1.488323276535    5.336423211179    0.000000000000
 O   -1.173053276535    3.082753211179    0.000000000000
 H   -0.286903276535    3.488743211179    0.000000000000
RB    0.075016723465   -0.197136788821    2.951760000000
RB    0.075016723465   -0.197136788821   -2.951760000000
 O    0.960803930959   -2.524978363890    0.000000000000
 H    0.074659067901   -2.930966491888    0.000000000000
 C    1.780591761140   -3.679585307870    0.000000000000
 O    1.276066899961   -4.778645685353    0.000000000000
 C    3.240481941529   -3.342949152352    0.000000000000
 H    3.819727102070   -4.271724800175    0.000000000000
 H    3.484594430059   -2.742776714514   -0.887695408236
 H    3.484594430059   -2.742776714514    0.887695408236
