18

 C   -3.460097402889    3.920085979366    0.000000000000
 H   -4.039347402889    4.848855979366    0.000000000000
 H   -3.704207402889    3.319905979366    0.887690000000
 H   -3.704207402889    3.319905979366   -0.887690000000
 C   -2.000207402889    4.256715979366    0.000000000000
 O   -1.495687402889    5.355775979366    0.000000000000
 O   -1.180417402889    3.102105979366    0.000000000000
 H   -0.294267402889    3.508095979366    0.000000000000
RB    0.067652597111   -0.177784020634    2.951760000000
RB    0.067652597111   -0.177784020634   -2.951760000000
 O    0.989004091396   -2.599087788621    0.000000000000
 H    0.102859228338   -3.005075916619    0.000000000000
 C    1.808791921577   -3.753694732601    0.000000000000
 O    1.304267060398   -4.852755110084    0.000000000000
 C    3.268682101967   -3.417058577083    0.000000000000
 H    3.847927262507   -4.345834224907    0.000000000000
 H    3.512794590496   -2.816886139245   -0.887695408236
 H    3.512794590496   -2.816886139245    0.887695408236
