18

 C   -3.467461529243    3.939438747553    0.000000000000
 H   -4.046711529243    4.868208747553    0.000000000000
 H   -3.711571529243    3.339258747553    0.887690000000
 H   -3.711571529243    3.339258747553   -0.887690000000
 C   -2.007571529243    4.276068747553    0.000000000000
 O   -1.503051529243    5.375128747553    0.000000000000
 O   -1.187781529243    3.121458747553    0.000000000000
 H   -0.301631529243    3.527448747553    0.000000000000
RB    0.060288470757   -0.158431252447    2.951760000000
RB    0.060288470757   -0.158431252447   -2.951760000000
 O    1.017204251833   -2.673197213352    0.000000000000
 H    0.131059388775   -3.079185341350    0.000000000000
 C    1.836992082014   -3.827804157332    0.000000000000
 O    1.332467220835   -4.926864534815    0.000000000000
 C    3.296882262404   -3.491168001814    0.000000000000
 H    3.876127422944   -4.419943649638    0.000000000000
 H    3.540994750933   -2.890995563976   -0.887695408236
 H    3.540994750933   -2.890995563976    0.887695408236
