18

 C   -3.511646287369    4.055555356672    0.000000000000
 H   -4.090896287369    4.984325356672    0.000000000000
 H   -3.755756287369    3.455375356672    0.887690000000
 H   -3.755756287369    3.455375356672   -0.887690000000
 C   -2.051756287369    4.392185356672    0.000000000000
 O   -1.547236287369    5.491245356672    0.000000000000
 O   -1.231966287369    3.237575356672    0.000000000000
 H   -0.345816287369    3.643565356672    0.000000000000
RB    0.016103712631   -0.042314643328    2.951760000000
RB    0.016103712631   -0.042314643328   -2.951760000000
 O    1.186405214457   -3.117853761739    0.000000000000
 H    0.300260351398   -3.523841889738    0.000000000000
 C    2.006193044638   -4.272460705719    0.000000000000
 O    1.501668183459   -5.371521083202    0.000000000000
 C    3.466083225027   -3.935824550201    0.000000000000
 H    4.045328385567   -4.864600198025    0.000000000000
 H    3.710195713557   -3.335652112363   -0.887695408236
 H    3.710195713557   -3.335652112363    0.887695408236
