18

 C   -3.533738666432    4.113613661232    0.000000000000
 H   -4.112988666432    5.042383661232    0.000000000000
 H   -3.777848666432    3.513433661232    0.887690000000
 H   -3.777848666432    3.513433661232   -0.887690000000
 C   -2.073848666432    4.450243661232    0.000000000000
 O   -1.569328666432    5.549303661232    0.000000000000
 O   -1.254058666432    3.295633661232    0.000000000000
 H   -0.367908666432    3.701623661232    0.000000000000
RB   -0.005988666432    0.015743661232    2.951760000000
RB   -0.005988666432    0.015743661232   -2.951760000000
 O    1.271005695768   -3.340182035933    0.000000000000
 H    0.384860832710   -3.746170163931    0.000000000000
 C    2.090793525949   -4.494788979913    0.000000000000
 O    1.586268664770   -5.593849357396    0.000000000000
 C    3.550683706339   -4.158152824394    0.000000000000
 H    4.129928866879   -5.086928472218    0.000000000000
 H    3.794796194868   -3.557980386557   -0.887695408236
 H    3.794796194868   -3.557980386557    0.887695408236
