18

 C   -3.548466919141    4.152319197606    0.000000000000
 H   -4.127716919141    5.081089197606    0.000000000000
 H   -3.792576919141    3.552139197606    0.887690000000
 H   -3.792576919141    3.552139197606   -0.887690000000
 C   -2.088576919141    4.488949197606    0.000000000000
 O   -1.584056919141    5.588009197606    0.000000000000
 O   -1.268786919141    3.334339197606    0.000000000000
 H   -0.382636919141    3.740329197606    0.000000000000
RB   -0.020716919141    0.054449197606    2.951760000000
RB   -0.020716919141    0.054449197606   -2.951760000000
 O    1.327406016643   -3.488400885395    0.000000000000
 H    0.441261153584   -3.894389013393    0.000000000000
 C    2.147193846824   -4.643007829375    0.000000000000
 O    1.642668985645   -5.742068206858    0.000000000000
 C    3.607084027213   -4.306371673857    0.000000000000
 H    4.186329187753   -5.235147321681    0.000000000000
 H    3.851196515743   -3.706199236019   -0.887695408236
 H    3.851196515743   -3.706199236019    0.887695408236
