18

 C   -3.555831045495    4.171671965792    0.000000000000
 H   -4.135081045495    5.100441965792    0.000000000000
 H   -3.799941045495    3.571491965792    0.887690000000
 H   -3.799941045495    3.571491965792   -0.887690000000
 C   -2.095941045495    4.508301965792    0.000000000000
 O   -1.591421045495    5.607361965792    0.000000000000
 O   -1.276151045495    3.353691965792    0.000000000000
 H   -0.390001045495    3.759681965792    0.000000000000
RB   -0.028081045495    0.073801965792    2.951760000000
RB   -0.028081045495    0.073801965792   -2.951760000000
 O    1.355606177080   -3.562510310126    0.000000000000
 H    0.469461314022   -3.968498438125    0.000000000000
 C    2.175394007261   -4.717117254106    0.000000000000
 O    1.670869146082   -5.816177631589    0.000000000000
 C    3.635284187650   -4.380481098588    0.000000000000
 H    4.214529348191   -5.309256746412    0.000000000000
 H    3.879396676180   -3.780308660750   -0.887695408236
 H    3.879396676180   -3.780308660750    0.887695408236
