18

 C   -3.592651677267    4.268435806726    0.000000000000
 H   -4.171901677267    5.197205806726    0.000000000000
 H   -3.836761677267    3.668255806726    0.887690000000
 H   -3.836761677267    3.668255806726   -0.887690000000
 C   -2.132761677267    4.605065806726    0.000000000000
 O   -1.628241677267    5.704125806726    0.000000000000
 O   -1.312971677267    3.450455806726    0.000000000000
 H   -0.426821677267    3.856445806726    0.000000000000
RB   -0.064901677267    0.170565806726    2.951760000000
RB   -0.064901677267    0.170565806726   -2.951760000000
 O    1.496606979266   -3.933057433782    0.000000000000
 H    0.610462116208   -4.339045561780    0.000000000000
 C    2.316394809447   -5.087664377762    0.000000000000
 O    1.811869948268   -6.186724755245    0.000000000000
 C    3.776284989837   -4.751028222244    0.000000000000
 H    4.355530150377   -5.679803870068    0.000000000000
 H    4.020397478366   -4.150855784406   -0.887695408236
 H    4.020397478366   -4.150855784406    0.887695408236
