18

 C   -3.600015803621    4.287788574912    0.000000000000
 H   -4.179265803621    5.216558574912    0.000000000000
 H   -3.844125803621    3.687608574912    0.887690000000
 H   -3.844125803621    3.687608574912   -0.887690000000
 C   -2.140125803621    4.624418574912    0.000000000000
 O   -1.635605803621    5.723478574912    0.000000000000
 O   -1.320335803621    3.469808574912    0.000000000000
 H   -0.434185803621    3.875798574912    0.000000000000
RB   -0.072265803621    0.189918574912    2.951760000000
RB   -0.072265803621    0.189918574912   -2.951760000000
 O    1.524807139703   -4.007166858513    0.000000000000
 H    0.638662276645   -4.413154986512    0.000000000000
 C    2.344594969884   -5.161773802494    0.000000000000
 O    1.840070108705   -6.260834179976    0.000000000000
 C    3.804485150274   -4.825137646975    0.000000000000
 H    4.383730310814   -5.753913294799    0.000000000000
 H    4.048597638803   -4.224965209137   -0.887695408236
 H    4.048597638803   -4.224965209137    0.887695408236
