18

 C   -3.614744056330    4.326494111286    0.000000000000
 H   -4.193994056330    5.255264111286    0.000000000000
 H   -3.858854056330    3.726314111286    0.887690000000
 H   -3.858854056330    3.726314111286   -0.887690000000
 C   -2.154854056330    4.663124111286    0.000000000000
 O   -1.650334056330    5.762184111286    0.000000000000
 O   -1.335064056330    3.508514111286    0.000000000000
 H   -0.448914056330    3.914504111286    0.000000000000
RB   -0.086994056330    0.228624111286    2.951760000000
RB   -0.086994056330    0.228624111286   -2.951760000000
 O    1.581207460578   -4.155385707976    0.000000000000
 H    0.695062597519   -4.561373835974    0.000000000000
 C    2.400995290759   -5.309992651956    0.000000000000
 O    1.896470429580   -6.409053029438    0.000000000000
 C    3.860885471148   -4.973356496437    0.000000000000
 H    4.440130631688   -5.902132144261    0.000000000000
 H    4.104997959678   -4.373184058600   -0.887695408236
 H    4.104997959678   -4.373184058600    0.887695408236
