18

 C   -3.644200561747    4.403905184032    0.000000000000
 H   -4.223450561747    5.332675184032    0.000000000000
 H   -3.888310561747    3.803725184032    0.887690000000
 H   -3.888310561747    3.803725184032   -0.887690000000
 C   -2.184310561747    4.740535184032    0.000000000000
 O   -1.679790561747    5.839595184032    0.000000000000
 O   -1.364520561747    3.585925184032    0.000000000000
 H   -0.478370561747    3.991915184032    0.000000000000
RB   -0.116450561747    0.306035184032    2.951760000000
RB   -0.116450561747    0.306035184032   -2.951760000000
 O    1.694008102326   -4.451823406901    0.000000000000
 H    0.807863239268   -4.857811534899    0.000000000000
 C    2.513795932508   -5.606430350881    0.000000000000
 O    2.009271071328   -6.705490728363    0.000000000000
 C    3.973686112897   -5.269794195362    0.000000000000
 H    4.552931273437   -6.198569843186    0.000000000000
 H    4.217798601427   -4.669621757525   -0.887695408236
 H    4.217798601427   -4.669621757525    0.887695408236
