18

 C   -3.666292940810    4.461963488592    0.000000000000
 H   -4.245542940810    5.390733488592    0.000000000000
 H   -3.910402940810    3.861783488592    0.887690000000
 H   -3.910402940810    3.861783488592   -0.887690000000
 C   -2.206402940810    4.798593488592    0.000000000000
 O   -1.701882940810    5.897653488592    0.000000000000
 O   -1.386612940810    3.643983488592    0.000000000000
 H   -0.500462940810    4.049973488592    0.000000000000
RB   -0.138542940810    0.364093488592    2.951760000000
RB   -0.138542940810    0.364093488592   -2.951760000000
 O    1.778608583638   -4.674151681094    0.000000000000
 H    0.892463720580   -5.080139809092    0.000000000000
 C    2.598396413819   -5.828758625074    0.000000000000
 O    2.093871552640   -6.927819002557    0.000000000000
 C    4.058286594209   -5.492122469556    0.000000000000
 H    4.637531754749   -6.420898117380    0.000000000000
 H    4.302399082738   -4.891950031718   -0.887695408236
 H    4.302399082738   -4.891950031718    0.887695408236
