18

 C   -3.695749446228    4.539374561339    0.000000000000
 H   -4.274999446228    5.468144561339    0.000000000000
 H   -3.939859446228    3.939194561339    0.887690000000
 H   -3.939859446228    3.939194561339   -0.887690000000
 C   -2.235859446228    4.876004561339    0.000000000000
 O   -1.731339446228    5.975064561339    0.000000000000
 O   -1.416069446228    3.721394561339    0.000000000000
 H   -0.529919446228    4.127384561339    0.000000000000
RB   -0.167999446228    0.441504561339    2.951760000000
RB   -0.167999446228    0.441504561339   -2.951760000000
 O    1.891409225387   -4.970589380019    0.000000000000
 H    1.005264362329   -5.376577508017    0.000000000000
 C    2.711197055568   -6.125196323999    0.000000000000
 O    2.206672194389   -7.224256701481    0.000000000000
 C    4.171087235958   -5.788560168480    0.000000000000
 H    4.750332396498   -6.717335816304    0.000000000000
 H    4.415199724487   -5.188387730643   -0.887695408236
 H    4.415199724487   -5.188387730643    0.887695408236
