18

 C   -3.725205951645    4.616785634085    0.000000000000
 H   -4.304455951645    5.545555634085    0.000000000000
 H   -3.969315951645    4.016605634085    0.887690000000
 H   -3.969315951645    4.016605634085   -0.887690000000
 C   -2.265315951645    4.953415634085    0.000000000000
 O   -1.760795951645    6.052475634085    0.000000000000
 O   -1.445525951645    3.798805634085    0.000000000000
 H   -0.559375951645    4.204795634085    0.000000000000
RB   -0.197455951645    0.518915634085    2.951760000000
RB   -0.197455951645    0.518915634085   -2.951760000000
 O    2.004209867136   -5.267027078943    0.000000000000
 H    1.118065004078   -5.673015206942    0.000000000000
 C    2.823997697317   -6.421634022923    0.000000000000
 O    2.319472836138   -7.520694400406    0.000000000000
 C    4.283887877706   -6.084997867405    0.000000000000
 H    4.863133038247   -7.013773515229    0.000000000000
 H    4.528000366236   -5.484825429567   -0.887695408236
 H    4.528000366236   -5.484825429567    0.887695408236
