18

 C   -3.739934204354    4.655491170458    0.000000000000
 H   -4.319184204354    5.584261170458    0.000000000000
 H   -3.984044204354    4.055311170458    0.887690000000
 H   -3.984044204354    4.055311170458   -0.887690000000
 C   -2.280044204354    4.992121170458    0.000000000000
 O   -1.775524204354    6.091181170458    0.000000000000
 O   -1.460254204354    3.837511170458    0.000000000000
 H   -0.574104204354    4.243501170458    0.000000000000
RB   -0.212184204354    0.557621170458    2.951760000000
RB   -0.212184204354    0.557621170458   -2.951760000000
 O    2.060610188010   -5.415245928406    0.000000000000
 H    1.174465324952   -5.821234056404    0.000000000000
 C    2.880398018191   -6.569852872386    0.000000000000
 O    2.375873157012   -7.668913249868    0.000000000000
 C    4.340288198581   -6.233216716867    0.000000000000
 H    4.919533359121   -7.161992364691    0.000000000000
 H    4.584400687110   -5.633044279030   -0.887695408236
 H    4.584400687110   -5.633044279030    0.887695408236
