16

 N   -2.129435059205   -0.256427151655   -0.015284466511
 C   -0.897309326938   -0.886717431663   -0.014329506203
 N   -0.627168390812   -2.207602906631   -0.017793695150
 C    0.700960777651   -2.425796799381   -0.002226266487
 H    1.014769060621   -3.472475531871    0.001153304204
 N    1.713310220692   -1.517815842240    0.011745003788
 C    1.401093476785   -0.206994758991    0.007098599888
 N    2.408720431587    0.717503878314   -0.034723237043
 H    3.340171968974    0.386973769562    0.187734697090
 H    2.175982925560    1.677474633353    0.190087008397
 C    0.035592635911    0.169699094876   -0.001672487827
 N   -0.587936675280    1.408664795506    0.008205721191
 C   -1.887862162437    1.100585407145   -0.000249131967
 H   -2.697915691224    1.827166208247    0.003799005896
 H   -3.033224736375   -0.716684275489   -0.022887522444
NA   -0.170641297441    2.317367879317    0.019308563496
