16

 N   -2.135505209547   -0.269645520770   -0.015445973026
 C   -0.903379477280   -0.899935800778   -0.014491012718
 N   -0.633238541154   -2.220821275746   -0.017955201665
 C    0.694890627309   -2.439015168496   -0.002387773002
 H    1.008698910279   -3.485693900986    0.000991797689
 N    1.707240070350   -1.531034211355    0.011583497273
 C    1.395023326443   -0.220213128106    0.006937093373
 N    2.402650281245    0.704285509199   -0.034884743558
 H    3.334101818632    0.373755400447    0.187573190575
 H    2.169912775218    1.664256264238    0.189925501882
 C    0.029522485569    0.156480725761   -0.001833994342
 N   -0.594006825622    1.395446426391    0.008044214676
 C   -1.893932312779    1.087367038030   -0.000410638482
 H   -2.703985841566    1.813947839132    0.003637499381
 H   -3.039294886717   -0.729902644604   -0.023049028959
NA   -0.134981909998    2.395019818582    0.020257341212
