16

 N   -2.141575359888   -0.282863889886   -0.015607479540
 C   -0.909449627621   -0.913154169894   -0.014652519232
 N   -0.639308691495   -2.234039644862   -0.018116708179
 C    0.688820476968   -2.452233537612   -0.002549279516
 H    1.002628759938   -3.498912270102    0.000830291175
 N    1.701169920009   -1.544252580471    0.011421990759
 C    1.388953176102   -0.233431497222    0.006775586859
 N    2.396580130904    0.691067140083   -0.035046250072
 H    3.328031668291    0.360537031331    0.187411684061
 H    2.163842624877    1.651037895122    0.189763995368
 C    0.023452335228    0.143262356645   -0.001995500856
 N   -0.600076975963    1.382228057275    0.007882708162
 C   -1.900002463120    1.074148668914   -0.000572144996
 H   -2.710055991907    1.800729470016    0.003475992867
 H   -3.045365037058   -0.743121013720   -0.023210535473
NA   -0.099322522556    2.472671757848    0.021206118928
