16

 N   -2.147645510229   -0.296082259001   -0.015768986055
 C   -0.915519777962   -0.926372539009   -0.014814025747
 N   -0.645378841836   -2.247258013977   -0.018278214694
 C    0.682750326627   -2.465451906727   -0.002710786031
 H    0.996558609597   -3.512130639217    0.000668784660
 N    1.695099769668   -1.557470949586    0.011260484244
 C    1.382883025761   -0.246649866337    0.006614080344
 N    2.390509980563    0.677848770968   -0.035207756587
 H    3.321961517950    0.347318662216    0.187250177546
 H    2.157772474536    1.637819526007    0.189602488853
 C    0.017382184887    0.130043987530   -0.002157007371
 N   -0.606147126304    1.369009688160    0.007721201647
 C   -1.906072613461    1.060930299799   -0.000733651511
 H   -2.716126142248    1.787511100901    0.003314486352
 H   -3.051435187399   -0.756339382835   -0.023372041988
NA   -0.063663135113    2.550323697114    0.022154896644
