16

 N   -2.165855961253   -0.335737366347   -0.016253505598
 C   -0.933730228986   -0.966027646355   -0.015298545290
 N   -0.663589292860   -2.286913121323   -0.018762734237
 C    0.664539875603   -2.505107014073   -0.003195305574
 H    0.978348158573   -3.551785746563    0.000184265117
 N    1.676889318644   -1.597126056932    0.010775964701
 C    1.364672574737   -0.286304973683    0.006129560801
 N    2.372299529539    0.638193663622   -0.035692276130
 H    3.303751066926    0.307663554870    0.186765658003
 H    2.139562023512    1.598164418661    0.189117969310
 C   -0.000828266137    0.090388880184   -0.002641526914
 N   -0.624357577328    1.329354580814    0.007236682104
 C   -1.924283064485    1.021275192453   -0.001218171054
 H   -2.734336593272    1.747855993555    0.002829966809
 H   -3.069645638423   -0.795994490181   -0.023856561531
NA    0.043315027214    2.783279514911    0.025001229792
