16

 N   -2.208347013643   -0.428265950154   -0.017384051200
 C   -0.976221281376   -1.058556230162   -0.016429090892
 N   -0.706080345250   -2.379441705130   -0.019893279839
 C    0.622048823213   -2.597635597880   -0.004325851176
 H    0.935857106183   -3.644314330370   -0.000946280485
 N    1.634398266254   -1.689654640739    0.009645419099
 C    1.322181522347   -0.378833557490    0.004999015199
 N    2.329808477149    0.545665079815   -0.036822821732
 H    3.261260014536    0.215134971063    0.185635112401
 H    2.097070971122    1.505635834854    0.187987423708
 C   -0.043319318527   -0.002139703623   -0.003772072516
 N   -0.666848629718    1.236825997007    0.006106136502
 C   -1.966774116875    0.928746608646   -0.002348716656
 H   -2.776827645662    1.655327409748    0.001699421207
 H   -3.112136690813   -0.888523073988   -0.024987107133
NA    0.292930739312    3.326843089771    0.031642673804
