16

 N   -2.220487314326   -0.454702688385   -0.017707064229
 C   -0.988361582059   -1.084992968393   -0.016752103921
 N   -0.718220645933   -2.405878443361   -0.020216292868
 C    0.609908522530   -2.624072336111   -0.004648864205
 H    0.923716805500   -3.670751068601   -0.001269293514
 N    1.622257965571   -1.716091378970    0.009322406070
 C    1.310041221664   -0.405270295721    0.004676002170
 N    2.317668176466    0.519228341584   -0.037145834761
 H    3.249119713853    0.188698232832    0.185312099372
 H    2.084930670439    1.479199096623    0.187664410679
 C   -0.055459619210   -0.028576441854   -0.004095085545
 N   -0.678988930401    1.210389258776    0.005783123473
 C   -1.978914417558    0.902309870415   -0.002671729685
 H   -2.788967946345    1.628890671517    0.001376408178
 H   -3.124276991496   -0.914959812219   -0.025310120162
NA    0.364249514197    3.482146968302    0.033540229236
