16

 N   -2.238697765350   -0.494357795731   -0.018191583773
 C   -1.006572033083   -1.124648075739   -0.017236623465
 N   -0.736431096957   -2.445533550707   -0.020700812412
 C    0.591698071506   -2.663727443457   -0.005133383749
 H    0.905506354476   -3.710406175947   -0.001753813058
 N    1.604047514547   -1.755746486316    0.008837886526
 C    1.291830770640   -0.444925403067    0.004191482626
 N    2.299457725442    0.479573234238   -0.037630354305
 H    3.230909262829    0.149043125486    0.184827579828
 H    2.066720219415    1.439543989277    0.187179891135
 C   -0.073670070234   -0.068231549200   -0.004579605089
 N   -0.697199381425    1.170734151430    0.005298603929
 C   -1.997124868582    0.862654763069   -0.003156249229
 H   -2.807178397369    1.589235564171    0.000891888634
 H   -3.142487442520   -0.954614919565   -0.025794639706
NA    0.471227676525    3.715102786099    0.036386562384
