16

 N   -2.244767915691   -0.507576164846   -0.018353090287
 C   -1.012642183424   -1.137866444854   -0.017398129979
 N   -0.742501247298   -2.458751919822   -0.020862318926
 C    0.585627921165   -2.676945812572   -0.005294890263
 H    0.899436204135   -3.723624545062   -0.001915319572
 N    1.597977364206   -1.768964855431    0.008676380012
 C    1.285760620299   -0.458143772182    0.004029976112
 N    2.293387575101    0.466354865123   -0.037791860819
 H    3.224839112488    0.135824756371    0.184666073314
 H    2.060650069074    1.426325620162    0.187018384621
 C   -0.079740220575   -0.081449918315   -0.004741111603
 N   -0.703269531766    1.157515782315    0.005137097415
 C   -2.003195018923    0.849436393954   -0.003317755743
 H   -2.813248547710    1.576017195056    0.000730382120
 H   -3.148557592861   -0.967833288680   -0.025956146220
NA    0.506887063967    3.792754725365    0.037335340100
