16

 N   -2.250838066033   -0.520794533962   -0.018514596802
 C   -1.018712333766   -1.151084813970   -0.017559636494
 N   -0.748571397640   -2.471970288938   -0.021023825441
 C    0.579557770823   -2.690164181688   -0.005456396778
 H    0.893366053793   -3.736842914178   -0.002076826087
 N    1.591907213864   -1.782183224547    0.008514873497
 C    1.279690469957   -0.471362141298    0.003868469597
 N    2.287317424759    0.453136496007   -0.037953367334
 H    3.218768962146    0.122606387255    0.184504566799
 H    2.054579918732    1.413107251046    0.186856878106
 C   -0.085810370917   -0.094668287431   -0.004902618118
 N   -0.709339682108    1.144297413199    0.004975590900
 C   -2.009265169265    0.836218024838   -0.003479262258
 H   -2.819318698052    1.562798825940    0.000568875605
 H   -3.154627743203   -0.981051657796   -0.026117652735
NA    0.542546451410    3.870406664631    0.038284117816
