16

 N   -2.281188817740   -0.586886379538   -0.019322129375
 C   -1.049063085473   -1.217176659546   -0.018367169067
 N   -0.778922149347   -2.538062134514   -0.021831358014
 C    0.549207019116   -2.756256027264   -0.006263929351
 H    0.863015302086   -3.802934759754   -0.002884358660
 N    1.561556462157   -1.848275070123    0.007707340924
 C    1.249339718250   -0.537453986874    0.003060937024
 N    2.256966673052    0.387044650431   -0.038760899907
 H    3.188418210439    0.056514541679    0.183697034226
 H    2.024229167025    1.347015405470    0.186049345533
 C   -0.116161122624   -0.160760133007   -0.005710150691
 N   -0.739690433815    1.078205567623    0.004168058327
 C   -2.039615920972    0.770126179262   -0.004286794831
 H   -2.849669449759    1.496706980364   -0.000238656968
 H   -3.184978494910   -1.047143503372   -0.026925185308
NA    0.720843388623    4.258666360959    0.043028006396
