16

 N   -2.305469419105   -0.639759856000   -0.019968155433
 C   -1.073343686838   -1.270050136008   -0.019013195125
 N   -0.803202750712   -2.590935610976   -0.022477384072
 C    0.524926417751   -2.809129503726   -0.006909955409
 H    0.838734700721   -3.855808236216   -0.003530384718
 N    1.537275860792   -1.901148546585    0.007061314866
 C    1.225059116885   -0.590327463336    0.002414910966
 N    2.232686071687    0.334171173969   -0.039406925965
 H    3.164137609074    0.003641065217    0.183051008168
 H    1.999948565660    1.294141929008    0.185403319475
 C   -0.140441723989   -0.213633609469   -0.006356176749
 N   -0.763971035180    1.025332091161    0.003522032269
 C   -2.063896522337    0.717252702800   -0.004932820889
 H   -2.873950051124    1.443833503902   -0.000884683026
 H   -3.209259096275   -1.100016979834   -0.027571211366
NA    0.863480938393    4.569274118022    0.046823117260
