16

 N   -2.311539569447   -0.652978225115   -0.020129661947
 C   -1.079413837180   -1.283268505123   -0.019174701639
 N   -0.809272901054   -2.604153980091   -0.022638890586
 C    0.518856267409   -2.822347872841   -0.007071461923
 H    0.832664550379   -3.869026605331   -0.003691891232
 N    1.531205710450   -1.914366915700    0.006899808352
 C    1.218988966543   -0.603545832451    0.002253404452
 N    2.226615921345    0.320952804854   -0.039568432479
 H    3.158067458732   -0.009577303898    0.182889501654
 H    1.993878415318    1.280923559893    0.185241812961
 C   -0.146511874331   -0.226851978584   -0.006517683263
 N   -0.770041185522    1.012113722046    0.003360525755
 C   -2.069966672679    0.704034333685   -0.005094327403
 H   -2.880020201466    1.430615134787   -0.001046189540
 H   -3.215329246617   -1.113235348949   -0.027732717880
NA    0.899140325835    4.646926057288    0.047771894976
