16

 N   -2.347960471495   -0.732288439807   -0.021098701035
 C   -1.115834739228   -1.362578719815   -0.020143740727
 N   -0.845693803102   -2.683464194783   -0.023607929674
 C    0.482435365361   -2.901658087533   -0.008040501011
 H    0.796243648331   -3.948336820023   -0.004660930320
 N    1.494784808402   -1.993677130392    0.005930769264
 C    1.182568064495   -0.682856047143    0.001284365364
 N    2.190195019297    0.241642590162   -0.040537471567
 H    3.121646556684   -0.088887518590    0.181920462566
 H    1.957457513270    1.201613345201    0.184272773873
 C   -0.182932776379   -0.306162193276   -0.007486722351
 N   -0.806462087570    0.932803507354    0.002391486667
 C   -2.106387574727    0.624724118993   -0.006063366491
 H   -2.916441103514    1.351304920095   -0.002015228628
 H   -3.251750148665   -1.192545563641   -0.028701756968
NA    1.113096650491    5.112837692882    0.053464561272
