16

 N   -2.432942576274   -0.917345607422   -0.023359792238
 C   -1.200816844007   -1.547635887430   -0.022404831930
 N   -0.930675907881   -2.868521362398   -0.025869020877
 C    0.397453260582   -3.086715255148   -0.010301592214
 H    0.711261543552   -4.133393987638   -0.006922021523
 N    1.409802703623   -2.178734298007    0.003669678061
 C    1.097585959716   -0.867913214758   -0.000976725839
 N    2.105212914518    0.056585422547   -0.042798562770
 H    3.036664451905   -0.273944686205    0.179659371363
 H    1.872475408491    1.016556177586    0.182011682670
 C   -0.267914881158   -0.491219360891   -0.009747813554
 N   -0.891444192349    0.747746339739    0.000130395464
 C   -2.191369679506    0.439666951378   -0.008324457694
 H   -3.001423208293    1.166247752480   -0.004276319831
 H   -3.336732253444   -1.377602731256   -0.030962848171
NA    1.612328074686    6.199964842602    0.066747449295
