16

 N   -2.439012726615   -0.930563976537   -0.023521298753
 C   -1.206886994348   -1.560854256545   -0.022566338445
 N   -0.936746058222   -2.881739731513   -0.026030527392
 C    0.391383110241   -3.099933624263   -0.010463098729
 H    0.705191393211   -4.146612356753   -0.007083528038
 N    1.403732553282   -2.191952667122    0.003508171546
 C    1.091515809375   -0.881131583873   -0.001138232354
 N    2.099142764177    0.043367053432   -0.042960069285
 H    3.030594301564   -0.287163055320    0.179497864848
 H    1.866405258150    1.003337808471    0.181850176155
 C   -0.273985031499   -0.504437730006   -0.009909320069
 N   -0.897514342690    0.734527970624   -0.000031111051
 C   -2.197439829847    0.426448582263   -0.008485964209
 H   -3.007493358634    1.153029383365   -0.004437826346
 H   -3.342802403785   -1.390821100371   -0.031124354686
NA    1.647987462129    6.277616781868    0.067696227011
