16

 N   -2.445082876957   -0.943782345653   -0.023682805267
 C   -1.212957144690   -1.574072625661   -0.022727844959
 N   -0.942816208564   -2.894958100629   -0.026192033906
 C    0.385312959899   -3.113151993379   -0.010624605243
 H    0.699121242869   -4.159830725869   -0.007245034552
 N    1.397662402940   -2.205171036238    0.003346665032
 C    1.085445659033   -0.894349952989   -0.001299738868
 N    2.093072613835    0.030148684316   -0.043121575799
 H    3.024524151222   -0.300381424436    0.179336358334
 H    1.860335107808    0.990119439355    0.181688669641
 C   -0.280055181841   -0.517656099122   -0.010070826583
 N   -0.903584493032    0.721309601508   -0.000192617565
 C   -2.203509980189    0.413230213147   -0.008647470723
 H   -3.013563508976    1.139811014249   -0.004599332860
 H   -3.348872554127   -1.404039469487   -0.031285861200
NA    1.683646849572    6.355268721134    0.068645004727
