16

 N   -2.463293327981   -0.983437452999   -0.024167324811
 C   -1.231167595714   -1.613727733007   -0.023212364503
 N   -0.961026659588   -2.934613207975   -0.026676553450
 C    0.367102508875   -3.152807100725   -0.011109124787
 H    0.680910791845   -4.199485833215   -0.007729554096
 N    1.379451951916   -2.244826143584    0.002862145488
 C    1.067235208009   -0.934005060335   -0.001784258412
 N    2.074862162811   -0.009506423030   -0.043606095343
 H    3.006313700198   -0.340036531782    0.178851838790
 H    1.842124656784    0.950464332009    0.181204150097
 C   -0.298265632865   -0.557311206468   -0.010555346127
 N   -0.921794944056    0.681654494162   -0.000677137109
 C   -2.221720431213    0.373575105801   -0.009131990267
 H   -3.031773960000    1.100155906903   -0.005083852404
 H   -3.367083005151   -1.443694576833   -0.031770380744
NA    1.790625011899    6.588224538931    0.071491337875
