16

 N   -2.475433628664   -1.009874191229   -0.024490337840
 C   -1.243307896397   -1.640164471237   -0.023535377532
 N   -0.973166960271   -2.961049946205   -0.026999566479
 C    0.354962208192   -3.179243838955   -0.011432137816
 H    0.668770491162   -4.225922571445   -0.008052567125
 N    1.367311651233   -2.271262881814    0.002539132459
 C    1.055094907326   -0.960441798565   -0.002107271441
 N    2.062721862128   -0.035943161260   -0.043929108372
 H    2.994173399515   -0.366473270012    0.178528825761
 H    1.829984356101    0.924027593779    0.180881137068
 C   -0.310405933548   -0.583747944698   -0.010878359156
 N   -0.933935244739    0.655217755932   -0.001000150138
 C   -2.233860731896    0.347138367571   -0.009455003296
 H   -3.043914260683    1.073719168673   -0.005406865433
 H   -3.379223305834   -1.470131315063   -0.032093393773
NA    1.861943786784    6.743528417462    0.073388893307
