16

 N   -2.505784380371   -1.075966036806   -0.025297870413
 C   -1.273658648104   -1.706256316814   -0.024342910105
 N   -1.003517711978   -3.027141791782   -0.027807099052
 C    0.324611456485   -3.245335684532   -0.012239670389
 H    0.638419739455   -4.292014417022   -0.008860099698
 N    1.336960899526   -2.337354727391    0.001731599886
 C    1.024744155619   -1.026533644142   -0.002914804014
 N    2.032371110421   -0.102035006837   -0.044736640945
 H    2.963822647808   -0.432565115589    0.177721293188
 H    1.799633604394    0.857935748202    0.180073604495
 C   -0.340756685255   -0.649839790275   -0.011685891729
 N   -0.964285996446    0.589125910355   -0.001807682711
 C   -2.264211483603    0.281046521994   -0.010262535869
 H   -3.074265012390    1.007627323096   -0.006214398006
 H   -3.409574057541   -1.536223160640   -0.032900926346
NA    2.040240723997    7.131788113791    0.078132781887
