16

 N   -2.536135132078   -1.142057882383   -0.026105402985
 C   -1.304009399811   -1.772348162391   -0.025150442677
 N   -1.033868463685   -3.093233637359   -0.028614631624
 C    0.294260704778   -3.311427530109   -0.013047202961
 H    0.608068987748   -4.358106262599   -0.009667632270
 N    1.306610147819   -2.403446572968    0.000924067314
 C    0.994393403912   -1.092625489719   -0.003722336586
 N    2.002020358714   -0.168126852414   -0.045544173517
 H    2.933471896101   -0.498656961166    0.176913760616
 H    1.769282852687    0.791843902625    0.179266071923
 C   -0.371107436962   -0.715931635852   -0.012493424301
 N   -0.994636748153    0.523034064778   -0.002615215283
 C   -2.294562235310    0.214954676417   -0.011070068441
 H   -3.104615764097    0.941535477519   -0.007021930578
 H   -3.439924809248   -1.602315006217   -0.033708458918
NA    2.218537661210    7.520047810119    0.082876670467
