16

 N   -2.542205282419   -1.155276251498   -0.026266909500
 C   -1.310079550152   -1.785566531506   -0.025311949192
 N   -1.039938614026   -3.106452006474   -0.028776138139
 C    0.288190554437   -3.324645899224   -0.013208709476
 H    0.601998837407   -4.371324631714   -0.009829138785
 N    1.300539997478   -2.416664942083    0.000762560799
 C    0.988323253571   -1.105843858834   -0.003883843101
 N    1.995950208373   -0.181345221529   -0.045705680032
 H    2.927401745760   -0.511875330281    0.176752254101
 H    1.763212702346    0.778625533510    0.179104565408
 C   -0.377177587303   -0.729150004967   -0.012654930816
 N   -1.000706898494    0.509815695663   -0.002776721798
 C   -2.300632385651    0.201736307302   -0.011231574956
 H   -3.110685914438    0.928317108404   -0.007183437093
 H   -3.445994959589   -1.615533375332   -0.033869965433
NA    2.254197048652    7.597699749385    0.083825448183
