16

 N   -2.554345583102   -1.181712989729   -0.026589922529
 C   -1.322219850835   -1.812003269737   -0.025634962221
 N   -1.052078914709   -3.132888744705   -0.029099151168
 C    0.276050253754   -3.351082637455   -0.013531722505
 H    0.589858536724   -4.397761369945   -0.010152151814
 N    1.288399696795   -2.443101680314    0.000439547770
 C    0.976182952888   -1.132280597065   -0.004206856130
 N    1.983809907690   -0.207781959760   -0.046028693061
 H    2.915261445077   -0.538312068512    0.176429241072
 H    1.751072401663    0.752188795279    0.178781552379
 C   -0.389317887986   -0.755586743198   -0.012977943845
 N   -1.012847199177    0.483378957432   -0.003099734827
 C   -2.312772686334    0.175299569071   -0.011554587985
 H   -3.122826215121    0.901880370173   -0.007506450122
 H   -3.458135260272   -1.641970113563   -0.034192978462
NA    2.325515823537    7.753003627916    0.085723003615
