16

 N   -2.572556034126   -1.221368097075   -0.027074442073
 C   -1.340430301859   -1.851658377083   -0.026119481765
 N   -1.070289365733   -3.172543852051   -0.029583670712
 C    0.257839802730   -3.390737744801   -0.014016242049
 H    0.571648085700   -4.437416477291   -0.010636671358
 N    1.270189245771   -2.482756787660   -0.000044971774
 C    0.957972501864   -1.171935704411   -0.004691375674
 N    1.965599456666   -0.247437067106   -0.046513212605
 H    2.897050994053   -0.577967175858    0.175944721528
 H    1.732861950639    0.712533687933    0.178297032835
 C   -0.407528339010   -0.795241850544   -0.013462463389
 N   -1.031057650201    0.443723850086   -0.003584254371
 C   -2.330983137358    0.135644461725   -0.012039107529
 H   -3.141036666145    0.862225262827   -0.007990969666
 H   -3.476345711296   -1.681625220909   -0.034677498006
NA    2.432493985865    7.985959445714    0.088569336763
