16

 N   -2.584696334809   -1.247804835305   -0.027397455102
 C   -1.352570602542   -1.878095115313   -0.026442494794
 N   -1.082429666416   -3.198980590281   -0.029906683741
 C    0.245699502047   -3.417174483031   -0.014339255078
 H    0.559507785017   -4.463853215521   -0.010959684387
 N    1.258048945088   -2.509193525890   -0.000367984803
 C    0.945832201181   -1.198372442641   -0.005014388703
 N    1.953459155983   -0.273873805336   -0.046836225634
 H    2.884910693370   -0.604403914088    0.175621708499
 H    1.720721649956    0.686096949703    0.177974019806
 C   -0.419668639693   -0.821678588774   -0.013785476418
 N   -1.043197950884    0.417287111856   -0.003907267400
 C   -2.343123438041    0.109207723495   -0.012362120558
 H   -3.153176966828    0.835788524597   -0.008313982695
 H   -3.488486011979   -1.708061959139   -0.035000511035
NA    2.503812760750    8.141263324245    0.090466892195
