16

 N   -2.590766485150   -1.261023204421   -0.027558961616
 C   -1.358640752883   -1.891313484429   -0.026604001308
 N   -1.088499816757   -3.212198959397   -0.030068190255
 C    0.239629351706   -3.430392852147   -0.014500761592
 H    0.553437634676   -4.477071584637   -0.011121190901
 N    1.251978794747   -2.522411895006   -0.000529491317
 C    0.939762050840   -1.211590811757   -0.005175895217
 N    1.947389005642   -0.287092174452   -0.046997732148
 H    2.878840543029   -0.617622283204    0.175460201985
 H    1.714651499615    0.672878580587    0.177812513292
 C   -0.425738790034   -0.834896957890   -0.013946982932
 N   -1.049268101225    0.404068742740   -0.004068773914
 C   -2.349193588382    0.095989354379   -0.012523627072
 H   -3.159247117169    0.822570155481   -0.008475489209
 H   -3.494556162320   -1.721280328255   -0.035162017549
NA    2.539472148193    8.218915263511    0.091415669911
