16

 N   -2.596836635491   -1.274241573536   -0.027720468131
 C   -1.364710903224   -1.904531853544   -0.026765507823
 N   -1.094569967098   -3.225417328512   -0.030229696770
 C    0.233559201365   -3.443611221262   -0.014662268107
 H    0.547367484335   -4.490289953752   -0.011282697416
 N    1.245908644406   -2.535630264121   -0.000690997832
 C    0.933691900499   -1.224809180872   -0.005337401732
 N    1.941318855301   -0.300310543567   -0.047159238663
 H    2.872770392688   -0.630840652319    0.175298695470
 H    1.708581349274    0.659660211472    0.177651006777
 C   -0.431808940375   -0.848115327005   -0.014108489447
 N   -1.055338251566    0.390850373625   -0.004230280429
 C   -2.355263738723    0.082770985264   -0.012685133587
 H   -3.165317267510    0.809351786366   -0.008636995724
 H   -3.500626312661   -1.734498697370   -0.035323524064
NA    2.575131535635    8.296567202776    0.092364447627
