16

 N   -2.615047086515   -1.313896680882   -0.028204987674
 C   -1.382921354248   -1.944186960890   -0.027250027366
 N   -1.112780418122   -3.265072435858   -0.030714216313
 C    0.215348750341   -3.483266328608   -0.015146787650
 H    0.529157033311   -4.529945061098   -0.011767216959
 N    1.227698193382   -2.575285371467   -0.001175517375
 C    0.915481449475   -1.264464288218   -0.005821921275
 N    1.923108404277   -0.339965650913   -0.047643758206
 H    2.854559941664   -0.670495759665    0.174814175927
 H    1.690370898250    0.620005104126    0.177166487234
 C   -0.450019391399   -0.887770434351   -0.014593008990
 N   -1.073548702590    0.351195266279   -0.004714799972
 C   -2.373474189747    0.043115877918   -0.013169653130
 H   -3.183527718534    0.769696679020   -0.009121515267
 H   -3.518836763685   -1.774153804716   -0.035808043607
NA    2.682109697963    8.529523020574    0.095210780775
