16

 N   -2.621117236857   -1.327115049997   -0.028366494189
 C   -1.388991504590   -1.957405330005   -0.027411533881
 N   -1.118850568464   -3.278290804973   -0.030875722828
 C    0.209278599999   -3.496484697723   -0.015308294165
 H    0.523086882969   -4.543163430213   -0.011928723474
 N    1.221628043040   -2.588503740582   -0.001337023890
 C    0.909411299133   -1.277682657333   -0.005983427790
 N    1.917038253935   -0.353184020028   -0.047805264721
 H    2.848489791322   -0.683714128780    0.174652669412
 H    1.684300747908    0.606786735011    0.177004980719
 C   -0.456089541741   -0.900988803466   -0.014754515505
 N   -1.079618852932    0.337976897164   -0.004876306487
 C   -2.379544340089    0.029897508803   -0.013331159645
 H   -3.189597868876    0.756478309905   -0.009283021782
 H   -3.524906914027   -1.787372173831   -0.035969550122
NA    2.717769085405    8.607174959839    0.096159558491
