16

 N   -2.627187387198   -1.340333419113   -0.028528000704
 C   -1.395061654931   -1.970623699121   -0.027573040396
 N   -1.124920718805   -3.291509174089   -0.031037229343
 C    0.203208449658   -3.509703066839   -0.015469800680
 H    0.517016732628   -4.556381799329   -0.012090229989
 N    1.215557892699   -2.601722109698   -0.001498530405
 C    0.903341148792   -1.290901026449   -0.006144934305
 N    1.910968103594   -0.366402389144   -0.047966771236
 H    2.842419640981   -0.696932497896    0.174491162897
 H    1.678230597567    0.593568365895    0.176843474204
 C   -0.462159692082   -0.914207172582   -0.014916022020
 N   -1.085689003273    0.324758528048   -0.005037813002
 C   -2.385614490430    0.016679139687   -0.013492666160
 H   -3.195668019217    0.743259940789   -0.009444528297
 H   -3.530977064368   -1.800590542947   -0.036131056637
NA    2.753428472848    8.684826899105    0.097108336207
