16

 N   -2.633257537540   -1.353551788228   -0.028689507218
 C   -1.401131805273   -1.983842068236   -0.027734546910
 N   -1.130990869147   -3.304727543204   -0.031198735857
 C    0.197138299316   -3.522921435954   -0.015631307194
 H    0.510946582286   -4.569600168444   -0.012251736503
 N    1.209487742357   -2.614940478813   -0.001660036919
 C    0.897270998450   -1.304119395564   -0.006306440819
 N    1.904897953252   -0.379620758259   -0.048128277750
 H    2.836349490639   -0.710150867011    0.174329656383
 H    1.672160447225    0.580349996780    0.176681967690
 C   -0.468229842424   -0.927425541697   -0.015077528534
 N   -1.091759153615    0.311540158933   -0.005199319516
 C   -2.391684640772    0.003460770572   -0.013654172674
 H   -3.201738169559    0.730041571674   -0.009606034811
 H   -3.537047214710   -1.813808912062   -0.036292563151
NA    2.789087860290    8.762478838371    0.098057113923
