16

 N   -2.639327687881   -1.366770157343   -0.028851013733
 C   -1.407201955614   -1.997060437351   -0.027896053425
 N   -1.137061019488   -3.317945912319   -0.031360242372
 C    0.191068148975   -3.536139805069   -0.015792813709
 H    0.504876431945   -4.582818537559   -0.012413243018
 N    1.203417592016   -2.628158847928   -0.001821543434
 C    0.891200848109   -1.317337764679   -0.006467947334
 N    1.898827802911   -0.392839127374   -0.048289784265
 H    2.830279340298   -0.723369236126    0.174168149868
 H    1.666090296884    0.567131627665    0.176520461175
 C   -0.474299992765   -0.940643910812   -0.015239035049
 N   -1.097829303956    0.298321789818   -0.005360826031
 C   -2.397754791113   -0.009757598543   -0.013815679189
 H   -3.207808319900    0.716823202559   -0.009767541326
 H   -3.543117365051   -1.827027281177   -0.036454069666
NA    2.824747247733    8.840130777636    0.099005891639
