16

 N   -2.657538138905   -1.406425264689   -0.029335533276
 C   -1.425412406638   -2.036715544697   -0.028380572968
 N   -1.155271470512   -3.357601019665   -0.031844761915
 C    0.172857697951   -3.575794912415   -0.016277333252
 H    0.486665980921   -4.622473644905   -0.012897762561
 N    1.185207140992   -2.667813955274   -0.002306062977
 C    0.872990397085   -1.356992872025   -0.006952466877
 N    1.880617351887   -0.432494234720   -0.048774303808
 H    2.812068889274   -0.763024343472    0.173683630325
 H    1.647879845860    0.527476520319    0.176035941632
 C   -0.492510443789   -0.980299018158   -0.015723554592
 N   -1.116039754980    0.258666682472   -0.005845345574
 C   -2.415965242137   -0.049412705889   -0.014300198732
 H   -3.226018770924    0.677168095213   -0.010252060869
 H   -3.561327816075   -1.866682388523   -0.036938589209
NA    2.931725410061    9.073086595434    0.101852224787
