16

 N   -2.663608289246   -1.419643633805   -0.029497039791
 C   -1.431482556979   -2.049933913813   -0.028542079483
 N   -1.161341620853   -3.370819388781   -0.032006268430
 C    0.166787547610   -3.589013281531   -0.016438839767
 H    0.480595830580   -4.635692014021   -0.013059269076
 N    1.179136990651   -2.681032324390   -0.002467569492
 C    0.866920246744   -1.370211241141   -0.007113973392
 N    1.874547201546   -0.445712603836   -0.048935810323
 H    2.805998738933   -0.776242712588    0.173522123810
 H    1.641809695519    0.514258151203    0.175874435117
 C   -0.498580594130   -0.993517387274   -0.015885061107
 N   -1.122109905321    0.245448313356   -0.006006852089
 C   -2.422035392478   -0.062631075005   -0.014461705247
 H   -3.232088921265    0.663949726097   -0.010413567384
 H   -3.567397966416   -1.879900757639   -0.037100095724
NA    2.967384797503    9.150738534699    0.102801002503
