16

 N   -2.669678439588   -1.432862002920   -0.029658546305
 C   -1.437552707321   -2.063152282928   -0.028703585997
 N   -1.167411771195   -3.384037757896   -0.032167774944
 C    0.160717397268   -3.602231650646   -0.016600346281
 H    0.474525680238   -4.648910383136   -0.013220775590
 N    1.173066840309   -2.694250693505   -0.002629076006
 C    0.860850096402   -1.383429610256   -0.007275479906
 N    1.868477051204   -0.458930972951   -0.049097316837
 H    2.799928588591   -0.789461081703    0.173360617296
 H    1.635739545177    0.501039782088    0.175712928603
 C   -0.504650744472   -1.006735756389   -0.016046567621
 N   -1.128180055663    0.232229944241   -0.006168358603
 C   -2.428105542820   -0.075849444120   -0.014623211761
 H   -3.238159071607    0.650731356982   -0.010575073898
 H   -3.573468116758   -1.893119126754   -0.037261602238
NA    3.003044184946    9.228390473965    0.103749780219
