14

 P   -0.023173908712    0.028633624301   -0.017324587964
 O   -0.610173908712    1.078633624301    0.937675412036
 O   -0.289173908712    0.076633624301   -1.529324587964
 O    1.639826091288   -0.145366375699    0.269675412036
 O   -0.338173908712   -1.529366375699    0.574675412036
 C    2.376826091288    1.019633624301   -0.107324587964
 H    2.045826091288    1.902633624301    0.468675412036
 H    2.261826091288    1.230633624301   -1.185324587964
 H    3.436826091288    0.817633624301    0.112675412036
 C   -1.729173908712   -1.852366375699    0.524675412036
 H   -2.107173908712   -1.825366375699   -0.513324587964
 H   -2.322173908712   -1.153366375699    1.140675412036
 H   -1.839173908712   -2.872366375699    0.924675412036
NA   -0.651436419440    0.840799028788   -0.411879493354
