14

 P   -0.005428733656    0.005694141153   -0.006180447185
 O   -0.592428733656    1.055694141153    0.948819552815
 O   -0.271428733656    0.053694141153   -1.518180447185
 O    1.657571266344   -0.168305858847    0.280819552815
 O   -0.320428733656   -1.552305858847    0.585819552815
 C    2.394571266344    0.996694141153   -0.096180447185
 H    2.063571266344    1.879694141153    0.479819552815
 H    2.279571266344    1.207694141153   -1.174180447185
 H    3.454571266344    0.794694141153    0.123819552815
 C   -1.711428733656   -1.875305858847    0.535819552815
 H   -2.089428733656   -1.848305858847   -0.502180447185
 H   -2.304428733656   -1.176305858847    1.151819552815
 H   -1.821428733656   -2.895305858847    0.935819552815
NA   -0.747920791789    0.965525982820   -0.472472608101
