14

 P    0.021189028928   -0.028715083568    0.010535763982
 O   -0.565810971072    1.021284916432    0.965535763982
 O   -0.244810971072    0.019284916432   -1.501464236018
 O    1.684189028928   -0.202715083568    0.297535763982
 O   -0.293810971072   -1.586715083568    0.602535763982
 C    2.421189028928    0.962284916432   -0.079464236018
 H    2.090189028928    1.845284916432    0.496535763982
 H    2.306189028928    1.173284916432   -1.157464236018
 H    3.481189028928    0.760284916432    0.140535763982
 C   -1.684810971072   -1.909715083568    0.552535763982
 H   -2.062810971072   -1.882715083568   -0.485464236018
 H   -2.277810971072   -1.210715083568    1.168535763982
 H   -1.794810971072   -2.929715083568    0.952535763982
NA   -0.892647350313    1.152616413868   -0.563362280222
