14

 P    0.030061616456   -0.040184825142    0.016107834372
 O   -0.556938383544    1.009815174858    0.971107834372
 O   -0.235938383544    0.007815174858   -1.495892165628
 O    1.693061616456   -0.214184825142    0.303107834372
 O   -0.284938383544   -1.598184825142    0.608107834372
 C    2.430061616456    0.950815174858   -0.073892165628
 H    2.099061616456    1.833815174858    0.502107834372
 H    2.315061616456    1.161815174858   -1.151892165628
 H    3.490061616456    0.748815174858    0.146107834372
 C   -1.675938383544   -1.921184825142    0.558107834372
 H   -2.053938383544   -1.894184825142   -0.479892165628
 H   -2.268938383544   -1.222184825142    1.174107834372
 H   -1.785938383544   -2.941184825142    0.958107834372
NA   -0.940889536487    1.214979890884   -0.593658837595
