14

 P    0.038934203984   -0.051654566716    0.021679904761
 O   -0.548065796016    0.998345433284    0.976679904761
 O   -0.227065796016   -0.003654566716   -1.490320095239
 O    1.701934203984   -0.225654566716    0.308679904761
 O   -0.276065796016   -1.609654566716    0.613679904761
 C    2.438934203984    0.939345433284   -0.068320095239
 H    2.107934203984    1.822345433284    0.507679904761
 H    2.323934203984    1.150345433284   -1.146320095239
 H    3.498934203984    0.737345433284    0.151679904761
 C   -1.667065796016   -1.932654566716    0.563679904761
 H   -2.045065796016   -1.905654566716   -0.474320095239
 H   -2.260065796016   -1.233654566716    1.179679904761
 H   -1.777065796016   -2.952654566716    0.963679904761
NA   -0.989131722662    1.277343367900   -0.623955394969
