14

 P    0.047806791512   -0.063124308290    0.027251975150
 O   -0.539193208488    0.986875691710    0.982251975150
 O   -0.218193208488   -0.015124308290   -1.484748024850
 O    1.710806791512   -0.237124308290    0.314251975150
 O   -0.267193208488   -1.621124308290    0.619251975150
 C    2.447806791512    0.927875691710   -0.062748024850
 H    2.116806791512    1.810875691710    0.513251975150
 H    2.332806791512    1.138875691710   -1.140748024850
 H    3.507806791512    0.725875691710    0.157251975150
 C   -1.658193208488   -1.944124308290    0.569251975150
 H   -2.036193208488   -1.917124308290   -0.468748024850
 H   -2.251193208488   -1.245124308290    1.185251975150
 H   -1.768193208488   -2.964124308290    0.969251975150
NA   -1.037373908836    1.339706844916   -0.654251952342
