14

 P    0.145405254321   -0.189291465602    0.088544749432
 O   -0.441594745679    0.860708534398    1.043544749432
 O   -0.120594745679   -0.141291465602   -1.423455250568
 O    1.808405254321   -0.363291465602    0.375544749432
 O   -0.169594745679   -1.747291465602    0.680544749432
 C    2.545405254321    0.801708534398   -0.001455250568
 H    2.214405254321    1.684708534398    0.574544749432
 H    2.430405254321    1.012708534398   -1.079455250568
 H    3.605405254321    0.599708534398    0.218544749432
 C   -1.560594745679   -2.070291465602    0.630544749432
 H   -1.938594745679   -2.043291465602   -0.407455250568
 H   -2.153594745679   -1.371291465602    1.246544749432
 H   -1.670594745679   -3.090291465602    1.030544749432
NA   -1.568037956755    2.025705092091   -0.987514083451
