14

 P    0.198640779489   -0.258109915045    0.121977171767
 O   -0.388359220511    0.791890084955    1.076977171767
 O   -0.067359220511   -0.210109915045   -1.390022828233
 O    1.861640779489   -0.432109915045    0.408977171767
 O   -0.116359220511   -1.816109915045    0.713977171767
 C    2.598640779489    0.732890084955    0.031977171767
 H    2.267640779489    1.615890084955    0.607977171767
 H    2.483640779489    0.943890084955   -1.046022828233
 H    3.658640779489    0.530890084955    0.251977171767
 C   -1.507359220511   -2.139109915045    0.663977171767
 H   -1.885359220511   -2.112109915045   -0.374022828233
 H   -2.100359220511   -1.440109915045    1.279977171767
 H   -1.617359220511   -3.159109915045    1.063977171767
NA   -1.857491073802    2.399885954186   -1.169293427692
