14

 P    0.207513367017   -0.269579656619    0.127549242156
 O   -0.379486632983    0.780420343381    1.082549242156
 O   -0.058486632983   -0.221579656619   -1.384450757844
 O    1.870513367017   -0.443579656619    0.414549242156
 O   -0.107486632983   -1.827579656619    0.719549242156
 C    2.607513367017    0.721420343381    0.037549242156
 H    2.276513367017    1.604420343381    0.613549242156
 H    2.492513367017    0.932420343381   -1.040450757844
 H    3.667513367017    0.519420343381    0.257549242156
 C   -1.498486632983   -2.150579656619    0.669549242156
 H   -1.876486632983   -2.123579656619   -0.368450757844
 H   -2.091486632983   -1.451579656619    1.285549242156
 H   -1.608486632983   -3.170579656619    1.069549242156
NA   -1.905733259977    2.462249431202   -1.199589985066
