14

 P    0.234131129602   -0.303988881340    0.144265453324
 O   -0.352868870398    0.746011118660    1.099265453324
 O   -0.031868870398   -0.255988881340   -1.367734546676
 O    1.897131129602   -0.477988881340    0.431265453324
 O   -0.080868870398   -1.861988881340    0.736265453324
 C    2.634131129602    0.687011118660    0.054265453324
 H    2.303131129602    1.570011118660    0.630265453324
 H    2.519131129602    0.898011118660   -1.023734546676
 H    3.694131129602    0.485011118660    0.274265453324
 C   -1.471868870398   -2.184988881340    0.686265453324
 H   -1.849868870398   -2.157988881340   -0.351734546676
 H   -2.064868870398   -1.485988881340    1.302265453324
 H   -1.581868870398   -3.204988881340    1.086265453324
NA   -2.050459818500    2.649339862250   -1.290479657186
