14

 P    0.260748892186   -0.338398106062    0.160981664492
 O   -0.326251107814    0.711601893938    1.115981664492
 O   -0.005251107814   -0.290398106062   -1.351018335508
 O    1.923748892186   -0.512398106062    0.447981664492
 O   -0.054251107814   -1.896398106062    0.752981664492
 C    2.660748892186    0.652601893938    0.070981664492
 H    2.329748892186    1.535601893938    0.646981664492
 H    2.545748892186    0.863601893938   -1.007018335508
 H    3.720748892186    0.450601893938    0.290981664492
 C   -1.445251107814   -2.219398106062    0.702981664492
 H   -1.823251107814   -2.192398106062   -0.335018335508
 H   -2.038251107814   -1.520398106062    1.318981664492
 H   -1.555251107814   -3.239398106062    1.102981664492
NA   -2.195186377024    2.836430293298   -1.381369329307
