14

 P    0.278494067242   -0.361337589210    0.172125805270
 O   -0.308505932758    0.688662410790    1.127125805270
 O    0.012494067242   -0.313337589210   -1.339874194730
 O    1.941494067242   -0.535337589210    0.459125805270
 O   -0.036505932758   -1.919337589210    0.764125805270
 C    2.678494067242    0.629662410790    0.082125805270
 H    2.347494067242    1.512662410790    0.658125805270
 H    2.563494067242    0.840662410790   -0.995874194730
 H    3.738494067242    0.427662410790    0.302125805270
 C   -1.427505932758   -2.242337589210    0.714125805270
 H   -1.805505932758   -2.215337589210   -0.323874194730
 H   -2.020505932758   -1.543337589210    1.330125805270
 H   -1.537505932758   -3.262337589210    1.114125805270
NA   -2.291670749373    2.961157247330   -1.441962444054
