14

 P    0.322857004882   -0.418686297079    0.199986157217
 O   -0.264142995118    0.631313702921    1.154986157217
 O    0.056857004882   -0.370686297079   -1.312013842783
 O    1.985857004882   -0.592686297079    0.486986157217
 O    0.007857004882   -1.976686297079    0.791986157217
 C    2.722857004882    0.572313702921    0.109986157217
 H    2.391857004882    1.455313702921    0.685986157217
 H    2.607857004882    0.783313702921   -0.968013842783
 H    3.782857004882    0.370313702921    0.329986157217
 C   -1.383142995118   -2.299686297079    0.741986157217
 H   -1.761142995118   -2.272686297079   -0.296013842783
 H   -1.976142995118   -1.600686297079    1.357986157217
 H   -1.493142995118   -3.319686297079    1.141986157217
NA   -2.532881680245    3.272974632409   -1.593445230921
