14

 P    0.331729592410   -0.430156038653    0.205558227606
 O   -0.255270407590    0.619843961347    1.160558227606
 O    0.065729592410   -0.382156038653   -1.306441772394
 O    1.994729592410   -0.604156038653    0.492558227606
 O    0.016729592410   -1.988156038653    0.797558227606
 C    2.731729592410    0.560843961347    0.115558227606
 H    2.400729592410    1.443843961347    0.691558227606
 H    2.616729592410    0.771843961347   -0.962441772394
 H    3.791729592410    0.358843961347    0.335558227606
 C   -1.374270407590   -2.311156038653    0.747558227606
 H   -1.752270407590   -2.284156038653   -0.290441772394
 H   -1.967270407590   -1.612156038653    1.363558227606
 H   -1.484270407590   -3.331156038653    1.147558227606
NA   -2.581123866420    3.335338109425   -1.623741788295
