14

 P    0.358347354994   -0.464565263374    0.222274438774
 O   -0.228652645006    0.585434736626    1.177274438774
 O    0.092347354994   -0.416565263374   -1.289725561226
 O    2.021347354994   -0.638565263374    0.509274438774
 O    0.043347354994   -2.022565263374    0.814274438774
 C    2.758347354994    0.526434736626    0.132274438774
 H    2.427347354994    1.409434736626    0.708274438774
 H    2.643347354994    0.737434736626   -0.945725561226
 H    3.818347354994    0.324434736626    0.352274438774
 C   -1.347652645006   -2.345565263374    0.764274438774
 H   -1.725652645006   -2.318565263374   -0.273725561226
 H   -1.940652645006   -1.646565263374    1.380274438774
 H   -1.457652645006   -3.365565263374    1.164274438774
NA   -2.725850424943    3.522428540473   -1.714631460415
