14

 P    0.376092530051   -0.487504746522    0.233418579552
 O   -0.210907469949    0.562495253478    1.188418579552
 O    0.110092530051   -0.439504746522   -1.278581420448
 O    2.039092530051   -0.661504746522    0.520418579552
 O    0.061092530051   -2.045504746522    0.825418579552
 C    2.776092530051    0.503495253478    0.143418579552
 H    2.445092530051    1.386495253478    0.719418579552
 H    2.661092530051    0.714495253478   -0.934581420448
 H    3.836092530051    0.301495253478    0.363418579552
 C   -1.329907469949   -2.368504746522    0.775418579552
 H   -1.707907469949   -2.341504746522   -0.262581420448
 H   -1.922907469949   -1.669504746522    1.391418579552
 H   -1.439907469949   -3.388504746522    1.175418579552
NA   -2.822334797292    3.647155494505   -1.775224575162
