14

 P    0.393837705107   -0.510444229670    0.244562720331
 O   -0.193162294893    0.539555770330    1.199562720331
 O    0.127837705107   -0.462444229670   -1.267437279669
 O    2.056837705107   -0.684444229670    0.531562720331
 O    0.078837705107   -2.068444229670    0.836562720331
 C    2.793837705107    0.480555770330    0.154562720331
 H    2.462837705107    1.363555770330    0.730562720331
 H    2.678837705107    0.691555770330   -0.923437279669
 H    3.853837705107    0.278555770330    0.374562720331
 C   -1.312162294893   -2.391444229670    0.786562720331
 H   -1.690162294893   -2.364444229670   -0.251437279669
 H   -1.905162294893   -1.692444229670    1.402562720331
 H   -1.422162294893   -3.411444229670    1.186562720331
NA   -2.918819169641    3.771882448537   -1.835817689909
