14

 P    0.438200642747   -0.567792937539    0.272423072277
 O   -0.148799357253    0.482207062461    1.227423072277
 O    0.172200642747   -0.519792937539   -1.239576927723
 O    2.101200642747   -0.741792937539    0.559423072277
 O    0.123200642747   -2.125792937539    0.864423072277
 C    2.838200642747    0.423207062461    0.182423072277
 H    2.507200642747    1.306207062461    0.758423072277
 H    2.723200642747    0.634207062461   -0.895576927723
 H    3.898200642747    0.221207062461    0.402423072277
 C   -1.267799357253   -2.448792937539    0.814423072277
 H   -1.645799357253   -2.421792937539   -0.223576927723
 H   -1.860799357253   -1.749792937539    1.430423072277
 H   -1.377799357253   -3.468792937539    1.214423072277
NA   -3.160030100513    4.083699833616   -1.987300476777
