14

 P    0.447073230275   -0.579262679113    0.277995142666
 O   -0.139926769725    0.470737320887    1.232995142666
 O    0.181073230275   -0.531262679113   -1.234004857334
 O    2.110073230275   -0.753262679113    0.564995142666
 O    0.132073230275   -2.137262679113    0.869995142666
 C    2.847073230275    0.411737320887    0.187995142666
 H    2.516073230275    1.294737320887    0.763995142666
 H    2.732073230275    0.622737320887   -0.890004857334
 H    3.907073230275    0.209737320887    0.407995142666
 C   -1.258926769725   -2.460262679113    0.819995142666
 H   -1.636926769725   -2.433262679113   -0.218004857334
 H   -1.851926769725   -1.761262679113    1.435995142666
 H   -1.368926769725   -3.480262679113    1.219995142666
NA   -3.208272286688    4.146063310632   -2.017597034150
