14

 P    0.482563580387   -0.625141645408    0.300283424223
 O   -0.104436419613    0.424858354592    1.255283424223
 O    0.216563580387   -0.577141645408   -1.211716575777
 O    2.145563580387   -0.799141645408    0.587283424223
 O    0.167563580387   -2.183141645408    0.892283424223
 C    2.882563580387    0.365858354592    0.210283424223
 H    2.551563580387    1.248858354592    0.786283424223
 H    2.767563580387    0.576858354592   -0.867716575777
 H    3.942563580387    0.163858354592    0.430283424223
 C   -1.223436419613   -2.506141645408    0.842283424223
 H   -1.601436419613   -2.479141645408   -0.195716575777
 H   -1.816436419613   -1.807141645408    1.458283424223
 H   -1.333436419613   -3.526141645408    1.242283424223
NA   -3.401241031386    4.395517218696   -2.138783263645
