14

 P    0.491436167915   -0.636611386982    0.305855494612
 O   -0.095563832085    0.413388613018    1.260855494612
 O    0.225436167915   -0.588611386982   -1.206144505388
 O    2.154436167915   -0.810611386982    0.592855494612
 O    0.176436167915   -2.194611386982    0.897855494612
 C    2.891436167915    0.354388613018    0.215855494612
 H    2.560436167915    1.237388613018    0.791855494612
 H    2.776436167915    0.565388613018   -0.862144505388
 H    3.951436167915    0.152388613018    0.435855494612
 C   -1.214563832085   -2.517611386982    0.847855494612
 H   -1.592563832085   -2.490611386982   -0.190144505388
 H   -1.807563832085   -1.818611386982    1.463855494612
 H   -1.324563832085   -3.537611386982    1.247855494612
NA   -3.449483217560    4.457880695712   -2.169079821018
