14

 P    0.500308755443   -0.648081128556    0.311427565002
 O   -0.086691244557    0.401918871444    1.266427565002
 O    0.234308755443   -0.600081128556   -1.200572434998
 O    2.163308755443   -0.822081128556    0.598427565002
 O    0.185308755443   -2.206081128556    0.903427565002
 C    2.900308755443    0.342918871444    0.221427565002
 H    2.569308755443    1.225918871444    0.797427565002
 H    2.785308755443    0.553918871444   -0.856572434998
 H    3.960308755443    0.140918871444    0.441427565002
 C   -1.205691244557   -2.529081128556    0.853427565002
 H   -1.583691244557   -2.502081128556   -0.184572434998
 H   -1.798691244557   -1.830081128556    1.469427565002
 H   -1.315691244557   -3.549081128556    1.253427565002
NA   -3.497725403735    4.520244172728   -2.199376378392
