14

 P    0.589034630724   -0.762778544294    0.367148268894
 O    0.002034630724    0.287221455706    1.322148268894
 O    0.323034630724   -0.714778544294   -1.144851731106
 O    2.252034630724   -0.936778544294    0.654148268894
 O    0.274034630724   -2.320778544294    0.959148268894
 C    2.989034630724    0.228221455706    0.277148268894
 H    2.658034630724    1.111221455706    0.853148268894
 H    2.874034630724    0.439221455706   -0.800851731106
 H    4.049034630724    0.026221455706    0.497148268894
 C   -1.116965369276   -2.643778544294    0.909148268894
 H   -1.494965369276   -2.616778544294   -0.128851731106
 H   -1.709965369276   -1.944778544294    1.525148268894
 H   -1.226965369276   -3.663778544294    1.309148268894
NA   -3.980147265480    5.143878942887   -2.502341952127
