14

 P    0.597907218252   -0.774248285868    0.372720339283
 O    0.010907218252    0.275751714132    1.327720339283
 O    0.331907218252   -0.726248285868   -1.139279660717
 O    2.260907218252   -0.948248285868    0.659720339283
 O    0.282907218252   -2.332248285868    0.964720339283
 C    2.997907218252    0.216751714132    0.282720339283
 H    2.666907218252    1.099751714132    0.858720339283
 H    2.882907218252    0.427751714132   -0.795279660717
 H    4.057907218252    0.014751714132    0.502720339283
 C   -1.108092781748   -2.655248285868    0.914720339283
 H   -1.486092781748   -2.628248285868   -0.123279660717
 H   -1.701092781748   -1.956248285868    1.530720339283
 H   -1.218092781748   -3.675248285868    1.314720339283
NA   -4.028389451654    5.206242419903   -2.532638509500
