14

 P    0.651142743420   -0.843066735311    0.406152761619
 O    0.064142743420    0.206933264689    1.361152761619
 O    0.385142743420   -0.795066735311   -1.105847238381
 O    2.314142743420   -1.017066735311    0.693152761619
 O    0.336142743420   -2.401066735311    0.998152761619
 C    3.051142743420    0.147933264689    0.316152761619
 H    2.720142743420    1.030933264689    0.892152761619
 H    2.936142743420    0.358933264689   -0.761847238381
 H    4.111142743420   -0.054066735311    0.536152761619
 C   -1.054857256580   -2.724066735311    0.948152761619
 H   -1.432857256580   -2.697066735311   -0.089847238381
 H   -1.647857256580   -2.025066735311    1.564152761619
 H   -1.164857256580   -3.744066735311    1.348152761619
NA   -4.317842568701    5.580423281999   -2.714417853741
