14

 P    0.660015330949   -0.854536476885    0.411724832008
 O    0.073015330949    0.195463523115    1.366724832008
 O    0.394015330949   -0.806536476885   -1.100275167992
 O    2.323015330949   -1.028536476885    0.698724832008
 O    0.345015330949   -2.412536476885    1.003724832008
 C    3.060015330949    0.136463523115    0.321724832008
 H    2.729015330949    1.019463523115    0.897724832008
 H    2.945015330949    0.347463523115   -0.756275167992
 H    4.120015330949   -0.065536476885    0.541724832008
 C   -1.045984669051   -2.735536476885    0.953724832008
 H   -1.423984669051   -2.708536476885   -0.084275167992
 H   -1.638984669051   -2.036536476885    1.569724832008
 H   -1.155984669051   -3.755536476885    1.353724832008
NA   -4.366084754875    5.642786759014   -2.744714411115
