14

 P    0.722123443645   -0.934824667901    0.450729324733
 O    0.135123443645    0.115175332099    1.405729324733
 O    0.456123443645   -0.886824667901   -1.061270675267
 O    2.385123443645   -1.108824667901    0.737729324733
 O    0.407123443645   -2.492824667901    1.042729324733
 C    3.122123443645    0.056175332099    0.360729324733
 H    2.791123443645    0.939175332099    0.936729324733
 H    3.007123443645    0.267175332099   -0.717270675267
 H    4.182123443645   -0.145824667901    0.580729324733
 C   -0.983876556355   -2.815824667901    0.992729324733
 H   -1.361876556355   -2.788824667901   -0.045270675267
 H   -1.576876556355   -2.116824667901    1.608729324733
 H   -1.093876556355   -3.835824667901    1.392729324733
NA   -4.703780058097    6.079331098126   -2.956790312729
