14

 P    0.739868618701   -0.957764151049    0.461873465511
 O    0.152868618701    0.092235848951    1.416873465511
 O    0.473868618701   -0.909764151049   -1.050126534489
 O    2.402868618701   -1.131764151049    0.748873465511
 O    0.424868618701   -2.515764151049    1.053873465511
 C    3.139868618701    0.033235848951    0.371873465511
 H    2.808868618701    0.916235848951    0.947873465511
 H    3.024868618701    0.244235848951   -0.706126534489
 H    4.199868618701   -0.168764151049    0.591873465511
 C   -0.966131381299   -2.838764151049    1.003873465511
 H   -1.344131381299   -2.811764151049   -0.034126534489
 H   -1.559131381299   -2.139764151049    1.619873465511
 H   -1.076131381299   -3.858764151049    1.403873465511
NA   -4.800264430446    6.204058052158   -3.017383427476
