13

 N   -0.671887493400    0.583459599067   -0.474141470101
 C    0.501852089683    1.310831790577   -0.474453949271
 H    0.384135229620    2.396150249621   -0.474569796830
 C   -0.717663466480   -0.809752192800   -0.474526524670
 O   -1.769251635036   -1.443855506641   -0.474183157566
 N    0.542777074661   -1.393222248932   -0.474109621348
 H    0.552592871784   -2.411507360798   -0.474136925443
 C    1.804031363894   -0.757166761969   -0.474092526512
 O    2.837724291962   -1.426430596385   -0.474838192176
 C    1.722552572134    0.703380299421   -0.474592423959
 H    2.645952710436    1.280440558287   -0.474933100736
 H   -1.575624669348    1.043113720427   -0.474343121701
RB   -0.671687859611    0.583610015867    0.625858501499
