13

 N   -0.671903143153    0.583447807547   -0.560373002310
 C    0.501836439930    1.310819999057   -0.560685481480
 H    0.384119579867    2.396138458101   -0.560801329039
 C   -0.717679116233   -0.809763984320   -0.560758056879
 O   -1.769267284789   -1.443867298161   -0.560414689775
 N    0.542761424908   -1.393234040452   -0.560341153557
 H    0.552577222031   -2.411519152318   -0.560368457652
 C    1.804015714141   -0.757178553489   -0.560324058721
 O    2.837708642209   -1.426442387905   -0.561069724385
 C    1.722536922381    0.703368507901   -0.560823956168
 H    2.645937060683    1.280428766767   -0.561164632945
 H   -1.575640319101    1.043101928907   -0.560574653910
RB   -0.671667212311    0.583625572857    0.739626964127
