13

 N   -0.671910968029    0.583441911787   -0.603488768415
 C    0.501828615054    1.310814103297   -0.603801247585
 H    0.384111754991    2.396132562341   -0.603917095144
 C   -0.717686941109   -0.809769880080   -0.603873822984
 O   -1.769275109665   -1.443873193921   -0.603530455880
 N    0.542753600032   -1.393239936212   -0.603456919662
 H    0.552569397155   -2.411525048078   -0.603484223757
 C    1.804007889265   -0.757184449249   -0.603439824826
 O    2.837700817333   -1.426448283665   -0.604185490490
 C    1.722529097505    0.703362612141   -0.603939722273
 H    2.645929235807    1.280422871007   -0.604280399050
 H   -1.575648143977    1.043096033147   -0.603690420015
RB   -0.671656888661    0.583633351352    0.796511195440
