13

 N   -0.671918792905    0.583436016028   -0.646604534519
 C    0.501820790178    1.310808207538   -0.646917013689
 H    0.384103930115    2.396126666582   -0.647032861248
 C   -0.717694765985   -0.809775775839   -0.646989589088
 O   -1.769282934541   -1.443879089680   -0.646646221984
 N    0.542745775156   -1.393245831971   -0.646572685766
 H    0.552561572279   -2.411530943837   -0.646599989861
 C    1.804000064389   -0.757190345008   -0.646555590930
 O    2.837692992457   -1.426454179424   -0.647301256594
 C    1.722521272629    0.703356716382   -0.647055488377
 H    2.645921410931    1.280416975248   -0.647396165154
 H   -1.575655968853    1.043090137388   -0.646806186119
RB   -0.671646565011    0.583641129846    0.853395426754
