13

 N   -0.671950092411    0.583412432988   -0.819067598937
 C    0.501789490672    1.310784624498   -0.819380078107
 H    0.384072630609    2.396103083542   -0.819495925666
 C   -0.717726065491   -0.809799358879   -0.819452653506
 O   -1.769314234047   -1.443902672720   -0.819109286402
 N    0.542714475650   -1.393269415011   -0.819035750184
 H    0.552530272773   -2.411554526877   -0.819063054279
 C    1.803968764883   -0.757213928048   -0.819018655348
 O    2.837661692951   -1.426477762464   -0.819764321012
 C    1.722489973123    0.703333133342   -0.819518552795
 H    2.645890111425    1.280393392208   -0.819859229572
 H   -1.575687268359    1.043066554348   -0.819269250537
RB   -0.671605270412    0.583672243826    1.080932352009
