13

 N   -0.671973567040    0.583394745709   -0.948414897251
 C    0.501766016043    1.310766937219   -0.948727376421
 H    0.384049155980    2.396085396263   -0.948843223980
 C   -0.717749540120   -0.809817046158   -0.948799951820
 O   -1.769337708676   -1.443920359999   -0.948456584716
 N    0.542691001021   -1.393287102290   -0.948383048498
 H    0.552506798144   -2.411572214156   -0.948410352593
 C    1.803945290254   -0.757231615327   -0.948365953662
 O    2.837638218322   -1.426495449743   -0.949111619326
 C    1.722466498494    0.703315446063   -0.948865851109
 H    2.645866636796    1.280375704929   -0.949206527886
 H   -1.575710742988    1.043048867069   -0.948616548851
RB   -0.671574299462    0.583695579310    1.251585045950
