13

 N   -0.671981391916    0.583388849949   -0.991530663355
 C    0.501758191167    1.310761041459   -0.991843142525
 H    0.384041331104    2.396079500503   -0.991958990084
 C   -0.717757364996   -0.809822941918   -0.991915717924
 O   -1.769345533552   -1.443926255759   -0.991572350820
 N    0.542683176145   -1.393292998050   -0.991498814602
 H    0.552498973268   -2.411578109916   -0.991526118697
 C    1.803937465378   -0.757237511087   -0.991481719766
 O    2.837630393446   -1.426501345503   -0.992227385430
 C    1.722458673618    0.703309550303   -0.991981617213
 H    2.645858811920    1.280369809169   -0.992322293990
 H   -1.575718567864    1.043042971309   -0.991732314955
RB   -0.671563975812    0.583703357805    1.308469277264
