13

 N   -0.672004866545    0.583371162670   -1.120877961669
 C    0.501734716538    1.310743354180   -1.121190440839
 H    0.384017856475    2.396061813224   -1.121306288398
 C   -0.717780839625   -0.809840629197   -1.121263016238
 O   -1.769369008181   -1.443943943038   -1.120919649134
 N    0.542659701516   -1.393310685329   -1.120846112916
 H    0.552475498639   -2.411595797195   -1.120873417011
 C    1.803913990749   -0.757255198366   -1.120829018080
 O    2.837606918817   -1.426519032782   -1.121574683744
 C    1.722435198989    0.703291863024   -1.121328915527
 H    2.645835337291    1.280352121890   -1.121669592304
 H   -1.575742042493    1.043025284030   -1.121079613269
RB   -0.671533004862    0.583726693289    1.479121971205
