13

 N   -0.672020516298    0.583359371150   -1.207109493878
 C    0.501719066785    1.310731562660   -1.207421973048
 H    0.384002206722    2.396050021704   -1.207537820607
 C   -0.717796489378   -0.809852420717   -1.207494548447
 O   -1.769384657934   -1.443955734558   -1.207151181343
 N    0.542644051763   -1.393322476849   -1.207077645125
 H    0.552459848886   -2.411607588715   -1.207104949220
 C    1.803898340996   -0.757266989886   -1.207060550289
 O    2.837591269064   -1.426530824302   -1.207806215953
 C    1.722419549236    0.703280071504   -1.207560447736
 H    2.645819687538    1.280340330370   -1.207901124513
 H   -1.575757692246    1.043013492510   -1.207311145478
RB   -0.671512357562    0.583742250279    1.592890433832
