13

 N   -0.672036166051    0.583347579631   -1.293341026087
 C    0.501703417032    1.310719771141   -1.293653505257
 H    0.383986556969    2.396038230185   -1.293769352816
 C   -0.717812139131   -0.809864212236   -1.293726080656
 O   -1.769400307687   -1.443967526077   -1.293382713552
 N    0.542628402010   -1.393334268368   -1.293309177334
 H    0.552444199133   -2.411619380234   -1.293336481429
 C    1.803882691243   -0.757278781405   -1.293292082498
 O    2.837575619311   -1.426542615821   -1.294037748162
 C    1.722403899483    0.703268279985   -1.293791979945
 H    2.645804037785    1.280328538851   -1.294132656722
 H   -1.575773341999    1.043001700991   -1.293542677687
RB   -0.671491710262    0.583757807269    1.706658896460
