13

 N   -0.672051815803    0.583335788111   -1.379572558296
 C    0.501687767280    1.310707979621   -1.379885037466
 H    0.383970907217    2.396026438665   -1.380000885025
 C   -0.717827788883   -0.809876003756   -1.379957612865
 O   -1.769415957439   -1.443979317597   -1.379614245761
 N    0.542612752258   -1.393346059888   -1.379540709543
 H    0.552428549381   -2.411631171754   -1.379568013638
 C    1.803867041491   -0.757290572925   -1.379523614707
 O    2.837559969559   -1.426554407341   -1.380269280371
 C    1.722388249731    0.703256488465   -1.380023512154
 H    2.645788388033    1.280316747331   -1.380364188931
 H   -1.575788991751    1.042989909471   -1.379774209896
RB   -0.671471062962    0.583773364258    1.820427359087
