13

 N   -0.672059640680    0.583329892352   -1.422688324401
 C    0.501679942403    1.310702083862   -1.423000803571
 H    0.383963082340    2.396020542906   -1.423116651130
 C   -0.717835613760   -0.809881899515   -1.423073378970
 O   -1.769423782316   -1.443985213356   -1.422730011866
 N    0.542604927381   -1.393351955647   -1.422656475648
 H    0.552420724504   -2.411637067513   -1.422683779743
 C    1.803859216614   -0.757296468684   -1.422639380812
 O    2.837552144682   -1.426560303100   -1.423385046476
 C    1.722380424854    0.703250592706   -1.423139278259
 H    2.645780563156    1.280310851572   -1.423479955036
 H   -1.575796816628    1.042984013712   -1.422889976001
RB   -0.671460739312    0.583781142753    1.877311590401
