13

 N   -0.672075290432    0.583318100832   -1.508919856610
 C    0.501664292651    1.310690292342   -1.509232335780
 H    0.383947432588    2.396008751386   -1.509348183339
 C   -0.717851263512   -0.809893691035   -1.509304911179
 O   -1.769439432068   -1.443997004876   -1.508961544075
 N    0.542589277629   -1.393363747167   -1.508888007857
 H    0.552405074752   -2.411648859033   -1.508915311952
 C    1.803843566862   -0.757308260204   -1.508870913021
 O    2.837536494930   -1.426572094620   -1.509616578685
 C    1.722364775102    0.703238801186   -1.509370810468
 H    2.645764913404    1.280299060052   -1.509711487245
 H   -1.575812466380    1.042972222192   -1.509121508210
RB   -0.671440092013    0.583796699743    1.991080053028
