13

 N   -0.672083115309    0.583312205072   -1.552035622714
 C    0.501656467774    1.310684396582   -1.552348101884
 H    0.383939607711    2.396002855626   -1.552463949443
 C   -0.717859088389   -0.809899586795   -1.552420677283
 O   -1.769447256945   -1.444002900636   -1.552077310179
 N    0.542581452752   -1.393369642927   -1.552003773961
 H    0.552397249875   -2.411654754793   -1.552031078056
 C    1.803835741985   -0.757314155964   -1.551986679125
 O    2.837528670053   -1.426577990380   -1.552732344789
 C    1.722356950225    0.703232905426   -1.552486576572
 H    2.645757088527    1.280293164292   -1.552827253349
 H   -1.575820291257    1.042966326432   -1.552237274314
RB   -0.671429768363    0.583804478237    2.047964284342
