13

 N   -0.672098765061    0.583300413553   -1.638267154923
 C    0.501640818022    1.310672605063   -1.638579634093
 H    0.383923957959    2.395991064107   -1.638695481652
 C   -0.717874738141   -0.809911378314   -1.638652209492
 O   -1.769462906697   -1.444014692155   -1.638308842388
 N    0.542565803000   -1.393381434446   -1.638235306170
 H    0.552381600123   -2.411666546312   -1.638262610265
 C    1.803820092233   -0.757325947483   -1.638218211334
 O    2.837513020301   -1.426589781899   -1.638963876998
 C    1.722341300473    0.703221113907   -1.638718108781
 H    2.645741438775    1.280281372773   -1.639058785558
 H   -1.575835941009    1.042954534913   -1.638468806523
RB   -0.671409121063    0.583820035227    2.161732746969
