13

 N   -0.672106589938    0.583294517793   -1.681382921028
 C    0.501632993145    1.310666709303   -1.681695400198
 H    0.383916133082    2.395985168347   -1.681811247757
 C   -0.717882563018   -0.809917274074   -1.681767975597
 O   -1.769470731574   -1.444020587915   -1.681424608493
 N    0.542557978123   -1.393387330206   -1.681351072275
 H    0.552373775246   -2.411672442072   -1.681378376370
 C    1.803812267356   -0.757331843243   -1.681333977439
 O    2.837505195424   -1.426595677659   -1.682079643103
 C    1.722333475596    0.703215218147   -1.681833874886
 H    2.645733613898    1.280275477013   -1.682174551663
 H   -1.575843765886    1.042948639153   -1.681584572628
RB   -0.671398797413    0.583827813722    2.218616978283
