13

 N   -0.672122239690    0.583282726273   -1.767614453237
 C    0.501617343393    1.310654917783   -1.767926932407
 H    0.383900483330    2.395973376827   -1.768042779966
 C   -0.717898212770   -0.809929065594   -1.767999507806
 O   -1.769486381326   -1.444032379435   -1.767656140702
 N    0.542542328371   -1.393399121726   -1.767582604484
 H    0.552358125494   -2.411684233592   -1.767609908579
 C    1.803796617604   -0.757343634763   -1.767565509648
 O    2.837489545672   -1.426607469179   -1.768311175312
 C    1.722317825844    0.703203426627   -1.768065407095
 H    2.645717964146    1.280263685493   -1.768406083872
 H   -1.575859415638    1.042936847633   -1.767816104837
RB   -0.671378150113    0.583843370711    2.332385440910
