13

 N   -0.672130064567    0.583276830514   -1.810730219342
 C    0.501609518516    1.310649022024   -1.811042698512
 H    0.383892658453    2.395967481068   -1.811158546071
 C   -0.717906037647   -0.809934961353   -1.811115273911
 O   -1.769494206203   -1.444038275194   -1.810771906807
 N    0.542534503494   -1.393405017485   -1.810698370589
 H    0.552350300617   -2.411690129351   -1.810725674684
 C    1.803788792727   -0.757349530522   -1.810681275753
 O    2.837481720795   -1.426613364938   -1.811426941417
 C    1.722310000967    0.703197530868   -1.811181173200
 H    2.645710139269    1.280257789734   -1.811521849977
 H   -1.575867240515    1.042930951874   -1.810931870942
RB   -0.671367826463    0.583851149206    2.389269672224
