13

 N   -0.672145714319    0.583265038994   -1.896961751551
 C    0.501593868764    1.310637230504   -1.897274230721
 H    0.383877008701    2.395955689548   -1.897390078280
 C   -0.717921687399   -0.809946752873   -1.897346806120
 O   -1.769509855955   -1.444050066714   -1.897003439016
 N    0.542518853742   -1.393416809005   -1.896929902798
 H    0.552334650865   -2.411701920871   -1.896957206893
 C    1.803773142975   -0.757361322042   -1.896912807962
 O    2.837466071043   -1.426625156458   -1.897658473626
 C    1.722294351215    0.703185739348   -1.897412705409
 H    2.645694489517    1.280245998214   -1.897753382186
 H   -1.575882890267    1.042919160354   -1.897163403151
RB   -0.671347179163    0.583866706196    2.503038134851
