13

 N   -0.672161364072    0.583253247474   -1.983193283760
 C    0.501578219011    1.310625438984   -1.983505762930
 H    0.383861358948    2.395943898028   -1.983621610489
 C   -0.717937337152   -0.809958544393   -1.983578338329
 O   -1.769525505708   -1.444061858234   -1.983234971225
 N    0.542503203989   -1.393428600525   -1.983161435007
 H    0.552319001112   -2.411713712391   -1.983188739102
 C    1.803757493222   -0.757373113562   -1.983144340171
 O    2.837450421290   -1.426636947978   -1.983890005835
 C    1.722278701462    0.703173947828   -1.983644237618
 H    2.645678839764    1.280234206694   -1.983984914395
 H   -1.575898540020    1.042907368834   -1.983394935360
RB   -0.671326531863    0.583882263186    2.616806597479
