13

 N   -0.672177013825    0.583241455955   -2.069424815969
 C    0.501562569258    1.310613647465   -2.069737295139
 H    0.383845709195    2.395932106509   -2.069853142698
 C   -0.717952986905   -0.809970335912   -2.069809870538
 O   -1.769541155461   -1.444073649753   -2.069466503434
 N    0.542487554236   -1.393440392044   -2.069392967216
 H    0.552303351359   -2.411725503910   -2.069420271311
 C    1.803741843469   -0.757384905081   -2.069375872380
 O    2.837434771537   -1.426648739497   -2.070121538044
 C    1.722263051709    0.703162156309   -2.069875769827
 H    2.645663190011    1.280222415175   -2.070216446604
 H   -1.575914189773    1.042895577315   -2.069626467569
RB   -0.671305884563    0.583897820175    2.730575060106
