13

 N   -0.672200488454    0.583223768676   -2.198772114282
 C    0.501539094629    1.310595960186   -2.199084593452
 H    0.383822234566    2.395914419230   -2.199200441011
 C   -0.717976461534   -0.809988023191   -2.199157168851
 O   -1.769564630090   -1.444091337032   -2.198813801747
 N    0.542464079607   -1.393458079323   -2.198740265529
 H    0.552279876730   -2.411743191189   -2.198767569624
 C    1.803718368840   -0.757402592360   -2.198723170693
 O    2.837411296908   -1.426666426776   -2.199468836357
 C    1.722239577080    0.703144469030   -2.199223068140
 H    2.645639715382    1.280204727896   -2.199563744917
 H   -1.575937664402    1.042877890036   -2.198973765882
RB   -0.671274913614    0.583921155660    2.901227754047
