13

 N   -0.672208313330    0.583217872916   -2.241887880387
 C    0.501531269753    1.310590064426   -2.242200359557
 H    0.383814409690    2.395908523470   -2.242316207116
 C   -0.717984286410   -0.809993918951   -2.242272934956
 O   -1.769572454966   -1.444097232792   -2.241929567852
 N    0.542456254731   -1.393463975083   -2.241856031634
 H    0.552272051854   -2.411749086949   -2.241883335729
 C    1.803710543964   -0.757408488120   -2.241838936798
 O    2.837403472032   -1.426672322536   -2.242584602462
 C    1.722231752204    0.703138573270   -2.242338834245
 H    2.645631890506    1.280198832136   -2.242679511022
 H   -1.575945489278    1.042871994276   -2.242089531987
RB   -0.671264589964    0.583928934154    2.958111985361
