13

 N   -0.672263087465    0.583176602597   -2.543698243119
 C    0.501476495618    1.310548794107   -2.544010722289
 H    0.383759635555    2.395867253151   -2.544126569848
 C   -0.718039060545   -0.810035189270   -2.544083297688
 O   -1.769627229101   -1.444138503111   -2.543739930584
 N    0.542401480596   -1.393505245402   -2.543666394366
 H    0.552217277719   -2.411790357268   -2.543693698461
 C    1.803655769829   -0.757449758439   -2.543649299530
 O    2.837348697897   -1.426713592855   -2.544394965194
 C    1.722176978069    0.703097302951   -2.544149196977
 H    2.645577116371    1.280157561817   -2.544489873754
 H   -1.576000263413    1.042830723957   -2.543899894719
RB   -0.671192324414    0.583983383618    3.356301604557
