13

 N   -0.672270912341    0.583170706838   -2.586814009223
 C    0.501468670742    1.310542898348   -2.587126488393
 H    0.383751810679    2.395861357392   -2.587242335952
 C   -0.718046885421   -0.810041085029   -2.587199063792
 O   -1.769635053977   -1.444144398870   -2.586855696688
 N    0.542393655720   -1.393511141161   -2.586782160470
 H    0.552209452843   -2.411796253027   -2.586809464565
 C    1.803647944953   -0.757455654198   -2.586765065634
 O    2.837340873021   -1.426719488614   -2.587510731298
 C    1.722169153193    0.703091407192   -2.587264963081
 H    2.645569291495    1.280151666058   -2.587605639858
 H   -1.576008088289    1.042824828198   -2.587015660823
RB   -0.671182000764    0.583991162113    3.413185835871
