13

 N   -0.672278737217    0.583164811078   -2.629929775328
 C    0.501460845866    1.310537002588   -2.630242254498
 H    0.383743985803    2.395855461632   -2.630358102057
 C   -0.718054710297   -0.810046980789   -2.630314829897
 O   -1.769642878853   -1.444150294630   -2.629971462793
 N    0.542385830844   -1.393517036921   -2.629897926575
 H    0.552201627967   -2.411802148787   -2.629925230670
 C    1.803640120077   -0.757461549958   -2.629880831739
 O    2.837333048145   -1.426725384374   -2.630626497403
 C    1.722161328317    0.703085511432   -2.630380729186
 H    2.645561466619    1.280145770298   -2.630721405963
 H   -1.576015913165    1.042818932438   -2.630131426928
RB   -0.671171677114    0.583998940608    3.470070067184
