13

 N   -0.672364810857    0.583099957720   -3.104203202478
 C    0.501374772226    1.310472149230   -3.104515681648
 H    0.383657912163    2.395790608274   -3.104631529207
 C   -0.718140783937   -0.810111834147   -3.104588257047
 O   -1.769728952493   -1.444215147988   -3.104244889943
 N    0.542299757204   -1.393581890279   -3.104171353725
 H    0.552115554327   -2.411867002145   -3.104198657820
 C    1.803554046437   -0.757526403316   -3.104154258889
 O    2.837246974505   -1.426790237732   -3.104899924553
 C    1.722075254677    0.703020658074   -3.104654156336
 H    2.645475392979    1.280080916940   -3.104994833113
 H   -1.576101986805    1.042754079080   -3.104404854078
RB   -0.671058116965    0.584084504051    4.095796611635
