13

 N   -0.672372635733    0.583094061961   -3.147318968582
 C    0.501366947350    1.310466253471   -3.147631447752
 H    0.383650087287    2.395784712515   -3.147747295311
 C   -0.718148608813   -0.810117729906   -3.147704023151
 O   -1.769736777369   -1.444221043747   -3.147360656047
 N    0.542291932328   -1.393587786038   -3.147287119829
 H    0.552107729451   -2.411872897904   -3.147314423924
 C    1.803546221561   -0.757532299075   -3.147270024993
 O    2.837239149629   -1.426796133491   -3.148015690657
 C    1.722067429801    0.703014762315   -3.147769922440
 H    2.645467568103    1.280075021181   -3.148110599217
 H   -1.576109811681    1.042748183321   -3.147520620182
RB   -0.671047793315    0.584092282545    4.152680842949
