13

 N   -0.672380460610    0.583088166201   -3.190434734687
 C    0.501359122473    1.310460357711   -3.190747213857
 H    0.383642262410    2.395778816755   -3.190863061416
 C   -0.718156433690   -0.810123625666   -3.190819789256
 O   -1.769744602246   -1.444226939507   -3.190476422152
 N    0.542284107451   -1.393593681798   -3.190402885934
 H    0.552099904574   -2.411878793664   -3.190430190029
 C    1.803538396684   -0.757538194835   -3.190385791098
 O    2.837231324752   -1.426802029251   -3.191131456762
 C    1.722059604924    0.703008866555   -3.190885688545
 H    2.645459743226    1.280069125421   -3.191226365322
 H   -1.576117636558    1.042742287561   -3.190636386287
RB   -0.671037469665    0.584100061040    4.209565074262
