13

 N   -0.672388285486    0.583082270441   -3.233550500791
 C    0.501351297597    1.310454461951   -3.233862979961
 H    0.383634437534    2.395772920995   -3.233978827520
 C   -0.718164258566   -0.810129521426   -3.233935555360
 O   -1.769752427122   -1.444232835267   -3.233592188256
 N    0.542276282575   -1.393599577558   -3.233518652038
 H    0.552092079698   -2.411884689424   -3.233545956133
 C    1.803530571808   -0.757544090595   -3.233501557202
 O    2.837223499876   -1.426807925011   -3.234247222866
 C    1.722051780048    0.703002970795   -3.234001454649
 H    2.645451918350    1.280063229661   -3.234342131426
 H   -1.576125461434    1.042736391801   -3.233752152391
RB   -0.671027146015    0.584107839535    4.266449305576
