13

 N   -0.672427409868    0.583052791642   -3.449129331314
 C    0.501312173215    1.310424983152   -3.449441810484
 H    0.383595313152    2.395743442196   -3.449557658043
 C   -0.718203382948   -0.810159000225   -3.449514385883
 O   -1.769791551504   -1.444262314066   -3.449171018779
 N    0.542237158193   -1.393629056357   -3.449097482561
 H    0.552052955316   -2.411914168223   -3.449124786656
 C    1.803491447426   -0.757573569394   -3.449080387725
 O    2.837184375494   -1.426837403810   -3.449826053389
 C    1.722012655666    0.702973491996   -3.449580285172
 H    2.645412793968    1.280033750862   -3.449920961949
 H   -1.576164585816    1.042706913002   -3.449330982914
RB   -0.670975527766    0.584146732009    4.550870462145
