13

 N   -0.672435234744    0.583046895882   -3.492245097418
 C    0.501304348339    1.310419087392   -3.492557576588
 H    0.383587488276    2.395737546436   -3.492673424147
 C   -0.718211207824   -0.810164895985   -3.492630151987
 O   -1.769799376380   -1.444268209826   -3.492286784883
 N    0.542229333317   -1.393634952117   -3.492213248665
 H    0.552045130440   -2.411920063983   -3.492240552760
 C    1.803483622550   -0.757579465154   -3.492196153829
 O    2.837176550618   -1.426843299570   -3.492941819493
 C    1.722004830790    0.702967596236   -3.492696051276
 H    2.645404969092    1.280027855102   -3.493036728053
 H   -1.576172410692    1.042701017242   -3.492446749018
RB   -0.670965204116    0.584154510504    4.607754693458
