13

 N   -0.672450884497    0.583035104363   -3.578476629627
 C    0.501288698586    1.310407295873   -3.578789108797
 H    0.383571838523    2.395725754917   -3.578904956356
 C   -0.718226857577   -0.810176687504   -3.578861684196
 O   -1.769815026133   -1.444280001345   -3.578518317092
 N    0.542213683564   -1.393646743636   -3.578444780874
 H    0.552029480687   -2.411931855502   -3.578472084969
 C    1.803467972797   -0.757591256673   -3.578427686038
 O    2.837160900865   -1.426855091089   -3.579173351702
 C    1.721989181037    0.702955804717   -3.578927583485
 H    2.645389319339    1.280016063583   -3.579268260262
 H   -1.576188060445    1.042689225723   -3.578678281227
RB   -0.670944556816    0.584170067494    4.721523156086
