13

 N   -0.672458709373    0.583029208603   -3.621592395732
 C    0.501280873710    1.310401400113   -3.621904874902
 H    0.383564013647    2.395719859157   -3.622020722461
 C   -0.718234682453   -0.810182583264   -3.621977450301
 O   -1.769822851009   -1.444285897105   -3.621634083197
 N    0.542205858688   -1.393652639396   -3.621560546979
 H    0.552021655811   -2.411937751262   -3.621587851074
 C    1.803460147921   -0.757597152433   -3.621543452143
 O    2.837153075989   -1.426860986849   -3.622289117807
 C    1.721981356161    0.702949908957   -3.622043349590
 H    2.645381494463    1.280010167823   -3.622384026367
 H   -1.576195885321    1.042683329963   -3.621794047332
RB   -0.670934233166    0.584177845988    4.778407387399
