13

 N   -0.672482184002    0.583011521324   -3.750939694045
 C    0.501257399081    1.310383712834   -3.751252173215
 H    0.383540539018    2.395702171878   -3.751368020774
 C   -0.718258157082   -0.810200270543   -3.751324748614
 O   -1.769846325638   -1.444303584384   -3.750981381510
 N    0.542182384059   -1.393670326675   -3.750907845292
 H    0.551998181182   -2.411955438541   -3.750935149387
 C    1.803436673292   -0.757614839712   -3.750890750456
 O    2.837129601360   -1.426878674128   -3.751636416120
 C    1.721957881532    0.702932221678   -3.751390647903
 H    2.645358019834    1.279992480544   -3.751731324680
 H   -1.576219359950    1.042665642684   -3.751141345645
RB   -0.670903262216    0.584201181473    4.949060081340
