13

 N   -0.672497833755    0.582999729804   -3.837171226255
 C    0.501241749328    1.310371921314   -3.837483705425
 H    0.383524889265    2.395690380358   -3.837599552984
 C   -0.718273806835   -0.810212062063   -3.837556280824
 O   -1.769861975391   -1.444315375904   -3.837212913720
 N    0.542166734306   -1.393682118195   -3.837139377502
 H    0.551982531429   -2.411967230061   -3.837166681597
 C    1.803421023539   -0.757626631232   -3.837122282666
 O    2.837113951607   -1.426890465648   -3.837867948330
 C    1.721942231779    0.702920430158   -3.837622180113
 H    2.645342370081    1.279980689024   -3.837962856890
 H   -1.576235009703    1.042653851164   -3.837372877855
RB   -0.670882614916    0.584216738462    5.062828543968
