13

 N   -0.672513483508    0.582987938285   -3.923402758464
 C    0.501226099575    1.310360129795   -3.923715237634
 H    0.383509239512    2.395678588839   -3.923831085193
 C   -0.718289456588   -0.810223853582   -3.923787813033
 O   -1.769877625144   -1.444327167423   -3.923444445929
 N    0.542151084553   -1.393693909714   -3.923370909711
 H    0.551966881676   -2.411979021580   -3.923398213806
 C    1.803405373786   -0.757638422751   -3.923353814875
 O    2.837098301854   -1.426902257167   -3.924099480539
 C    1.721926582026    0.702908638639   -3.923853712322
 H    2.645326720328    1.279968897505   -3.924194389099
 H   -1.576250659456    1.042642059645   -3.923604410064
RB   -0.670861967616    0.584232295452    5.176597006595
