13

 N   -0.672576082518    0.582940772206   -4.268328887300
 C    0.501163500565    1.310312963716   -4.268641366470
 H    0.383446640502    2.395631422760   -4.268757214029
 C   -0.718352055598   -0.810271019661   -4.268713941869
 O   -1.769940224154   -1.444374333502   -4.268370574765
 N    0.542088485543   -1.393741075793   -4.268297038547
 H    0.551904282666   -2.412026187659   -4.268324342642
 C    1.803342774776   -0.757685588830   -4.268279943711
 O    2.837035702844   -1.426949423246   -4.269025609375
 C    1.721863983016    0.702861472560   -4.268779841158
 H    2.645264121318    1.279921731426   -4.269120517935
 H   -1.576313258466    1.042594893566   -4.268530538900
RB   -0.670779378417    0.584294523411    5.631670857105
