21

 C   -2.106124321469   -3.924366865498    0.000000000000
 H   -2.877844321469   -4.686576865498    0.000000000000
 C   -2.184094321469   -2.542456865498    0.000000000000
 H   -3.045974321469   -1.884036865498    0.000000000000
 N   -0.760294321469   -4.229326865498    0.000000000000
 H   -0.364164321469   -5.163896865498    0.000000000000
 N   -0.894174321469   -2.066316865498    0.000000000000
 H   -0.568784321469   -1.052126865498    0.000000000000
 C   -0.033534321469   -3.090366865498    0.000000000000
 H    1.047875678531   -3.012186865498    0.000000000000
CL    0.277205678531    0.640583134502    0.000000000000
 N    0.753783068236    1.741888719534    0.000000000000
 H    0.428385398779    0.727691021296    0.000000000000
 C   -0.106855676289    2.765930701252    0.000000000000
 H   -1.188263389487    2.687751095625    0.000000000000
 N    0.619900573514    3.904896249359    0.000000000000
 H    0.223772285696    4.839459720767    0.000000000000
 C    1.965731254325    3.599934315524    0.000000000000
 H    2.737450081032    4.362141020694    0.000000000000
 C    2.043690370800    2.218028563689    0.000000000000
 H    2.905573004949    1.559599292396    0.000000000000
