21

 C   -2.201194038124   -4.144060061567    0.000000000000
 H   -2.972914038124   -4.906270061567    0.000000000000
 C   -2.279164038124   -2.762150061567    0.000000000000
 H   -3.141044038124   -2.103730061567    0.000000000000
 N   -0.855364038124   -4.449020061567    0.000000000000
 H   -0.459234038124   -5.383590061567    0.000000000000
 N   -0.989244038124   -2.286010061567    0.000000000000
 H   -0.663854038124   -1.271820061567    0.000000000000
 C   -0.128604038124   -3.310060061567    0.000000000000
 H    0.952805961876   -3.231880061567    0.000000000000
CL    0.182135961876    0.420889938433    0.000000000000
 N    0.897002046435    2.072848315980    0.000000000000
 H    0.571604376977    1.058650617742    0.000000000000
 C    0.036363301909    3.096890297698    0.000000000000
 H   -1.045044411288    3.018710692071    0.000000000000
 N    0.763119551712    4.235855845805    0.000000000000
 H    0.366991263894    5.170419317213    0.000000000000
 C    2.108950232523    3.930893911970    0.000000000000
 H    2.880669059230    4.693100617140    0.000000000000
 C    2.186909348998    2.548988160135    0.000000000000
 H    3.048791983148    1.890558888841    0.000000000000
