21

 C   -3.500480165737   -7.146533741189    0.000000000000
 H   -4.272200165737   -7.908743741189    0.000000000000
 C   -3.578450165737   -5.764623741189    0.000000000000
 H   -4.440330165737   -5.106203741189    0.000000000000
 N   -2.154650165737   -7.451493741189    0.000000000000
 H   -1.758520165737   -8.386063741189    0.000000000000
 N   -2.288530165737   -5.288483741189    0.000000000000
 H   -1.963140165737   -4.274293741189    0.000000000000
 C   -1.427890165737   -6.312533741189    0.000000000000
 H   -0.346480165737   -6.234353741189    0.000000000000
CL   -1.117150165737   -2.581583741189    0.000000000000
 N    2.854328081810    6.595962800740    0.000000000000
 H    2.528930412352    5.581765102502    0.000000000000
 C    1.993689337285    7.620004782458    0.000000000000
 H    0.912281624087    7.541825176831    0.000000000000
 N    2.720445587088    8.758970330565    0.000000000000
 H    2.324317299270    9.693533801973    0.000000000000
 C    4.066276267899    8.454008396730    0.000000000000
 H    4.837995094606    9.216215101900    0.000000000000
 C    4.144235384374    7.072102644895    0.000000000000
 H    5.006118018523    6.413673373601    0.000000000000
