21

 C   -2.264573849227   -4.290522192281    0.000000000000
 H   -3.036293849227   -5.052732192281    0.000000000000
 C   -2.342543849227   -2.908612192281    0.000000000000
 H   -3.204423849227   -2.250192192281    0.000000000000
 N   -0.918743849227   -4.595482192281    0.000000000000
 H   -0.522613849227   -5.530052192281    0.000000000000
 N   -1.052623849227   -2.432472192281    0.000000000000
 H   -0.727233849227   -1.418282192281    0.000000000000
 C   -0.191983849227   -3.456522192281    0.000000000000
 H    0.889426150773   -3.378342192281    0.000000000000
CL    0.118756150773    0.274427807719    0.000000000000
 N    0.992481365233    2.293488046944    0.000000000000
 H    0.667083695776    1.279290348705    0.000000000000
 C    0.131842620708    3.317530028662    0.000000000000
 H   -0.949565092490    3.239350423035    0.000000000000
 N    0.858598870511    4.456495576768    0.000000000000
 H    0.462470582693    5.391059048177    0.000000000000
 C    2.204429551322    4.151533642934    0.000000000000
 H    2.976148378029    4.913740348104    0.000000000000
 C    2.282388667797    2.769627891099    0.000000000000
 H    3.144271301946    2.111198619805    0.000000000000
