21

 C   -2.327953660330   -4.436984322994    0.000000000000
 H   -3.099673660330   -5.199194322994    0.000000000000
 C   -2.405923660330   -3.055074322994    0.000000000000
 H   -3.267803660330   -2.396654322994    0.000000000000
 N   -0.982123660330   -4.741944322994    0.000000000000
 H   -0.585993660330   -5.676514322994    0.000000000000
 N   -1.116003660330   -2.578934322994    0.000000000000
 H   -0.790613660330   -1.564744322994    0.000000000000
 C   -0.255363660330   -3.602984322994    0.000000000000
 H    0.826046339670   -3.524804322994    0.000000000000
CL    0.055376339670    0.127965677006    0.000000000000
 N    1.087960684032    2.514127777908    0.000000000000
 H    0.762563014575    1.499930079669    0.000000000000
 C    0.227321939507    3.538169759626    0.000000000000
 H   -0.854085773691    3.459990153998    0.000000000000
 N    0.954078189310    4.677135307732    0.000000000000
 H    0.557949901492    5.611698779141    0.000000000000
 C    2.299908870121    4.372173373898    0.000000000000
 H    3.071627696828    5.134380079068    0.000000000000
 C    2.377867986596    2.990267622063    0.000000000000
 H    3.239750620745    2.331838350769    0.000000000000
