21

 C   -2.343798613106   -4.473599855672    0.000000000000
 H   -3.115518613106   -5.235809855672    0.000000000000
 C   -2.421768613106   -3.091689855672    0.000000000000
 H   -3.283648613106   -2.433269855672    0.000000000000
 N   -0.997968613106   -4.778559855672    0.000000000000
 H   -0.601838613106   -5.713129855672    0.000000000000
 N   -1.131848613106   -2.615549855672    0.000000000000
 H   -0.806458613106   -1.601359855672    0.000000000000
 C   -0.271208613106   -3.639599855672    0.000000000000
 H    0.810201386894   -3.561419855672    0.000000000000
CL    0.039531386894    0.091350144328    0.000000000000
 N    1.111830513732    2.569287710648    0.000000000000
 H    0.786432844274    1.555090012410    0.000000000000
 C    0.251191769207    3.593329692367    0.000000000000
 H   -0.830215943991    3.515150086739    0.000000000000
 N    0.977948019009    4.732295240473    0.000000000000
 H    0.581819731192    5.666858711882    0.000000000000
 C    2.323778699820    4.427333306639    0.000000000000
 H    3.095497526528    5.189540011809    0.000000000000
 C    2.401737816296    3.045427554804    0.000000000000
 H    3.263620450445    2.386998283510    0.000000000000
