21

 C   -2.391333471433   -4.583446453707    0.000000000000
 H   -3.163053471433   -5.345656453707    0.000000000000
 C   -2.469303471433   -3.201536453707    0.000000000000
 H   -3.331183471433   -2.543116453707    0.000000000000
 N   -1.045503471433   -4.888406453707    0.000000000000
 H   -0.649373471433   -5.822976453707    0.000000000000
 N   -1.179383471433   -2.725396453707    0.000000000000
 H   -0.853993471433   -1.711206453707    0.000000000000
 C   -0.318743471433   -3.749446453707    0.000000000000
 H    0.762666528567   -3.671266453707    0.000000000000
CL   -0.008003471433   -0.018496453707    0.000000000000
 N    1.183440002831    2.734767508871    0.000000000000
 H    0.858042333373    1.720569810633    0.000000000000
 C    0.322801258306    3.758809490590    0.000000000000
 H   -0.758606454892    3.680629884962    0.000000000000
 N    1.049557508108    4.897775038696    0.000000000000
 H    0.653429220291    5.832338510104    0.000000000000
 C    2.395388188919    4.592813104862    0.000000000000
 H    3.167107015627    5.355019810031    0.000000000000
 C    2.473347305395    3.210907353027    0.000000000000
 H    3.335229939544    2.552478081733    0.000000000000
