21

 C   -2.407178424209   -4.620061986385    0.000000000000
 H   -3.178898424209   -5.382271986385    0.000000000000
 C   -2.485148424209   -3.238151986385    0.000000000000
 H   -3.347028424209   -2.579731986385    0.000000000000
 N   -1.061348424209   -4.925021986385    0.000000000000
 H   -0.665218424209   -5.859591986385    0.000000000000
 N   -1.195228424209   -2.762011986385    0.000000000000
 H   -0.869838424209   -1.747821986385    0.000000000000
 C   -0.334588424209   -3.786061986385    0.000000000000
 H    0.746821575791   -3.707881986385    0.000000000000
CL   -0.023848424209   -0.055111986385    0.000000000000
 N    1.207309832531    2.789927441612    0.000000000000
 H    0.881912163073    1.775729743374    0.000000000000
 C    0.346671088006    3.813969423331    0.000000000000
 H   -0.734736625192    3.735789817703    0.000000000000
 N    1.073427337808    4.952934971437    0.000000000000
 H    0.677299049990    5.887498442845    0.000000000000
 C    2.419258018619    4.647973037603    0.000000000000
 H    3.190976845327    5.410179742772    0.000000000000
 C    2.497217135095    3.266067285768    0.000000000000
 H    3.359099769244    2.607638014474    0.000000000000
