21

 C   -2.438868329760   -4.693293051742    0.000000000000
 H   -3.210588329760   -5.455503051742    0.000000000000
 C   -2.516838329760   -3.311383051742    0.000000000000
 H   -3.378718329760   -2.652963051742    0.000000000000
 N   -1.093038329760   -4.998253051742    0.000000000000
 H   -0.696908329760   -5.932823051742    0.000000000000
 N   -1.226918329760   -2.835243051742    0.000000000000
 H   -0.901528329760   -1.821053051742    0.000000000000
 C   -0.366278329760   -3.859293051742    0.000000000000
 H    0.715131670240   -3.781113051742    0.000000000000
CL   -0.055538329760   -0.128343051742    0.000000000000
 N    1.255049491930    2.900247307094    0.000000000000
 H    0.929651822472    1.886049608856    0.000000000000
 C    0.394410747405    3.924289288813    0.000000000000
 H   -0.686996965793    3.846109683185    0.000000000000
 N    1.121166997208    5.063254836919    0.000000000000
 H    0.725038709390    5.997818308327    0.000000000000
 C    2.466997678019    4.758292903085    0.000000000000
 H    3.238716504726    5.520499608254    0.000000000000
 C    2.544956794494    3.376387151250    0.000000000000
 H    3.406839428643    2.717957879956    0.000000000000
