21

 C   -2.470558235312   -4.766524117099    0.000000000000
 H   -3.242278235312   -5.528734117099    0.000000000000
 C   -2.548528235312   -3.384614117099    0.000000000000
 H   -3.410408235312   -2.726194117099    0.000000000000
 N   -1.124728235312   -5.071484117099    0.000000000000
 H   -0.728598235312   -6.006054117099    0.000000000000
 N   -1.258608235312   -2.908474117099    0.000000000000
 H   -0.933218235312   -1.894284117099    0.000000000000
 C   -0.397968235312   -3.932524117099    0.000000000000
 H    0.683441764688   -3.854344117099    0.000000000000
CL   -0.087228235312   -0.201574117099    0.000000000000
 N    1.302789151329    3.010567172576    0.000000000000
 H    0.977391481872    1.996369474338    0.000000000000
 C    0.442150406804    4.034609154295    0.000000000000
 H   -0.639257306394    3.956429548667    0.000000000000
 N    1.168906656607    5.173574702401    0.000000000000
 H    0.772778368789    6.108138173809    0.000000000000
 C    2.514737337418    4.868612768567    0.000000000000
 H    3.286456164125    5.630819473736    0.000000000000
 C    2.592696453893    3.486707016732    0.000000000000
 H    3.454579088042    2.828277745438    0.000000000000
