21

 C   -2.502248140863   -4.839755182455    0.000000000000
 H   -3.273968140863   -5.601965182455    0.000000000000
 C   -2.580218140863   -3.457845182455    0.000000000000
 H   -3.442098140863   -2.799425182455    0.000000000000
 N   -1.156418140863   -5.144715182455    0.000000000000
 H   -0.760288140863   -6.079285182455    0.000000000000
 N   -1.290298140863   -2.981705182455    0.000000000000
 H   -0.964908140863   -1.967515182455    0.000000000000
 C   -0.429658140863   -4.005755182455    0.000000000000
 H    0.651751859137   -3.927575182455    0.000000000000
CL   -0.118918140863   -0.274805182455    0.000000000000
 N    1.350528810729    3.120887038058    0.000000000000
 H    1.025131141271    2.106689339820    0.000000000000
 C    0.489890066204    4.144929019777    0.000000000000
 H   -0.591517646994    4.066749414149    0.000000000000
 N    1.216646316006    5.283894567883    0.000000000000
 H    0.820518028189    6.218458039291    0.000000000000
 C    2.562476996817    4.978932634049    0.000000000000
 H    3.334195823525    5.741139339218    0.000000000000
 C    2.640436113293    3.597026882214    0.000000000000
 H    3.502318747442    2.938597610920    0.000000000000
