21

 C   -2.518093093639   -4.876370715134    0.000000000000
 H   -3.289813093639   -5.638580715134    0.000000000000
 C   -2.596063093639   -3.494460715134    0.000000000000
 H   -3.457943093639   -2.836040715134    0.000000000000
 N   -1.172263093639   -5.181330715134    0.000000000000
 H   -0.776133093639   -6.115900715134    0.000000000000
 N   -1.306143093639   -3.018320715134    0.000000000000
 H   -0.980753093639   -2.004130715134    0.000000000000
 C   -0.445503093639   -4.042370715134    0.000000000000
 H    0.635906906361   -3.964190715134    0.000000000000
CL   -0.134763093639   -0.311420715134    0.000000000000
 N    1.374398640429    3.176046970799    0.000000000000
 H    1.049000970971    2.161849272561    0.000000000000
 C    0.513759895903    4.200088952518    0.000000000000
 H   -0.567647817294    4.121909346890    0.000000000000
 N    1.240516145706    5.339054500624    0.000000000000
 H    0.844387857888    6.273617972032    0.000000000000
 C    2.586346826517    5.034092566790    0.000000000000
 H    3.358065653225    5.796299271959    0.000000000000
 C    2.664305942992    3.652186814955    0.000000000000
 H    3.526188577142    2.993757543661    0.000000000000
