21

 C   -2.533938046415   -4.912986247812    0.000000000000
 H   -3.305658046415   -5.675196247812    0.000000000000
 C   -2.611908046415   -3.531076247812    0.000000000000
 H   -3.473788046415   -2.872656247812    0.000000000000
 N   -1.188108046415   -5.217946247812    0.000000000000
 H   -0.791978046415   -6.152516247812    0.000000000000
 N   -1.321988046415   -3.054936247812    0.000000000000
 H   -0.996598046415   -2.040746247812    0.000000000000
 C   -0.461348046415   -4.078986247812    0.000000000000
 H    0.620061953585   -4.000806247812    0.000000000000
CL   -0.150608046415   -0.348036247812    0.000000000000
 N    1.398268470128    3.231206903540    0.000000000000
 H    1.072870800671    2.217009205302    0.000000000000
 C    0.537629725603    4.255248885259    0.000000000000
 H   -0.543777987595    4.177069279631    0.000000000000
 N    1.264385975406    5.394214433365    0.000000000000
 H    0.868257687588    6.328777904773    0.000000000000
 C    2.610216656217    5.089252499531    0.000000000000
 H    3.381935482924    5.851459204700    0.000000000000
 C    2.688175772692    3.707346747696    0.000000000000
 H    3.550058406841    3.048917476402    0.000000000000
