21

 C   -2.597317857518   -5.059448378525    0.000000000000
 H   -3.369037857518   -5.821658378525    0.000000000000
 C   -2.675287857518   -3.677538378525    0.000000000000
 H   -3.537167857518   -3.019118378525    0.000000000000
 N   -1.251487857518   -5.364408378525    0.000000000000
 H   -0.855357857518   -6.298978378525    0.000000000000
 N   -1.385367857518   -3.201398378525    0.000000000000
 H   -1.059977857518   -2.187208378525    0.000000000000
 C   -0.524727857518   -4.225448378525    0.000000000000
 H    0.556682142482   -4.147268378525    0.000000000000
CL   -0.213987857518   -0.494498378525    0.000000000000
 N    1.493747788927    3.451846634504    0.000000000000
 H    1.168350119469    2.437648936266    0.000000000000
 C    0.633109044402    4.475888616223    0.000000000000
 H   -0.448298668796    4.397709010595    0.000000000000
 N    1.359865294205    5.614854164329    0.000000000000
 H    0.963737006387    6.549417635737    0.000000000000
 C    2.705695975016    5.309892230495    0.000000000000
 H    3.477414801723    6.072098935664    0.000000000000
 C    2.783655091491    3.927986478660    0.000000000000
 H    3.645537725640    3.269557207366    0.000000000000
