21

 C   -2.660697668621   -5.205910509238    0.000000000000
 H   -3.432417668621   -5.968120509238    0.000000000000
 C   -2.738667668621   -3.824000509238    0.000000000000
 H   -3.600547668621   -3.165580509238    0.000000000000
 N   -1.314867668621   -5.510870509238    0.000000000000
 H   -0.918737668621   -6.445440509238    0.000000000000
 N   -1.448747668621   -3.347860509238    0.000000000000
 H   -1.123357668621   -2.333670509238    0.000000000000
 C   -0.588107668621   -4.371910509238    0.000000000000
 H    0.493302331379   -4.293730509238    0.000000000000
CL   -0.277367668621   -0.640960509238    0.000000000000
 N    1.589227107726    3.672486365468    0.000000000000
 H    1.263829438268    2.658288667230    0.000000000000
 C    0.728588363201    4.696528347187    0.000000000000
 H   -0.352819349997    4.618348741559    0.000000000000
 N    1.455344613003    5.835493895293    0.000000000000
 H    1.059216325186    6.770057366701    0.000000000000
 C    2.801175293814    5.530531961459    0.000000000000
 H    3.572894120522    6.292738666628    0.000000000000
 C    2.879134410290    4.148626209623    0.000000000000
 H    3.741017044439    3.490196938330    0.000000000000
