21

 C   -2.724077479724   -5.352372639952    0.000000000000
 H   -3.495797479724   -6.114582639952    0.000000000000
 C   -2.802047479724   -3.970462639952    0.000000000000
 H   -3.663927479724   -3.312042639952    0.000000000000
 N   -1.378247479724   -5.657332639952    0.000000000000
 H   -0.982117479724   -6.591902639952    0.000000000000
 N   -1.512127479724   -3.494322639952    0.000000000000
 H   -1.186737479724   -2.480132639952    0.000000000000
 C   -0.651487479724   -4.518372639952    0.000000000000
 H    0.429922520276   -4.440192639952    0.000000000000
CL   -0.340747479724   -0.787422639952    0.000000000000
 N    1.684706426525    3.893126096432    0.000000000000
 H    1.359308757067    2.878928398194    0.000000000000
 C    0.824067682000    4.917168078151    0.000000000000
 H   -0.257340031198    4.838988472523    0.000000000000
 N    1.550823931802    6.056133626257    0.000000000000
 H    1.154695643985    6.990697097665    0.000000000000
 C    2.896654612613    5.751171692422    0.000000000000
 H    3.668373439321    6.513378397592    0.000000000000
 C    2.974613729089    4.369265940587    0.000000000000
 H    3.836496363238    3.710836669294    0.000000000000
