21

 C   -2.739922432500   -5.388988172630    0.000000000000
 H   -3.511642432500   -6.151198172630    0.000000000000
 C   -2.817892432500   -4.007078172630    0.000000000000
 H   -3.679772432500   -3.348658172630    0.000000000000
 N   -1.394092432500   -5.693948172630    0.000000000000
 H   -0.997962432500   -6.628518172630    0.000000000000
 N   -1.527972432500   -3.530938172630    0.000000000000
 H   -1.202582432500   -2.516748172630    0.000000000000
 C   -0.667332432500   -4.554988172630    0.000000000000
 H    0.414077567500   -4.476808172630    0.000000000000
CL   -0.356592432500   -0.824038172630    0.000000000000
 N    1.708576256224    3.948286029173    0.000000000000
 H    1.383178586767    2.934088330935    0.000000000000
 C    0.847937511699    4.972328010892    0.000000000000
 H   -0.233470201499    4.894148405264    0.000000000000
 N    1.574693761502    6.111293558998    0.000000000000
 H    1.178565473684    7.045857030406    0.000000000000
 C    2.920524442313    5.806331625163    0.000000000000
 H    3.692243269020    6.568538330333    0.000000000000
 C    2.998483558788    4.424425873328    0.000000000000
 H    3.860366192937    3.765996602035    0.000000000000
