21

 C   -2.755767385276   -5.425603705308    0.000000000000
 H   -3.527487385276   -6.187813705308    0.000000000000
 C   -2.833737385276   -4.043693705308    0.000000000000
 H   -3.695617385276   -3.385273705308    0.000000000000
 N   -1.409937385276   -5.730563705308    0.000000000000
 H   -1.013807385276   -6.665133705308    0.000000000000
 N   -1.543817385276   -3.567553705308    0.000000000000
 H   -1.218427385276   -2.553363705308    0.000000000000
 C   -0.683177385276   -4.591603705308    0.000000000000
 H    0.398232614724   -4.513423705308    0.000000000000
CL   -0.372437385276   -0.860653705308    0.000000000000
 N    1.732446085924    4.003445961914    0.000000000000
 H    1.407048416466    2.989248263676    0.000000000000
 C    0.871807341399    5.027487943632    0.000000000000
 H   -0.209600371799    4.949308338005    0.000000000000
 N    1.598563591202    6.166453491739    0.000000000000
 H    1.202435303384    7.101016963147    0.000000000000
 C    2.944394272013    5.861491557904    0.000000000000
 H    3.716113098720    6.623698263074    0.000000000000
 C    3.022353388488    4.479585806069    0.000000000000
 H    3.884236022637    3.821156534776    0.000000000000
