21

 C   -2.771612338051   -5.462219237987    0.000000000000
 H   -3.543332338051   -6.224429237987    0.000000000000
 C   -2.849582338051   -4.080309237987    0.000000000000
 H   -3.711462338051   -3.421889237987    0.000000000000
 N   -1.425782338051   -5.767179237987    0.000000000000
 H   -1.029652338051   -6.701749237987    0.000000000000
 N   -1.559662338051   -3.604169237987    0.000000000000
 H   -1.234272338051   -2.589979237987    0.000000000000
 C   -0.699022338051   -4.628219237987    0.000000000000
 H    0.382387661949   -4.550039237987    0.000000000000
CL   -0.388282338051   -0.897269237987    0.000000000000
 N    1.756315915624    4.058605894655    0.000000000000
 H    1.430918246166    3.044408196417    0.000000000000
 C    0.895677171099    5.082647876373    0.000000000000
 H   -0.185730542099    5.004468270746    0.000000000000
 N    1.622433420901    6.221613424480    0.000000000000
 H    1.226305133084    7.156176895888    0.000000000000
 C    2.968264101712    5.916651490645    0.000000000000
 H    3.739982928420    6.678858195815    0.000000000000
 C    3.046223218188    4.534745738810    0.000000000000
 H    3.908105852337    3.876316467516    0.000000000000
