21

 C   -2.803302243603   -5.535450303343    0.000000000000
 H   -3.575022243603   -6.297660303343    0.000000000000
 C   -2.881272243603   -4.153540303343    0.000000000000
 H   -3.743152243603   -3.495120303343    0.000000000000
 N   -1.457472243603   -5.840410303343    0.000000000000
 H   -1.061342243603   -6.774980303343    0.000000000000
 N   -1.591352243603   -3.677400303343    0.000000000000
 H   -1.265962243603   -2.663210303343    0.000000000000
 C   -0.730712243603   -4.701450303343    0.000000000000
 H    0.350697756397   -4.623270303343    0.000000000000
CL   -0.419972243603   -0.970500303343    0.000000000000
 N    1.804055575023    4.168925760137    0.000000000000
 H    1.478657905566    3.154728061899    0.000000000000
 C    0.943416830498    5.192967741855    0.000000000000
 H   -0.137990882700    5.114788136228    0.000000000000
 N    1.670173080301    6.331933289962    0.000000000000
 H    1.274044792483    7.266496761370    0.000000000000
 C    3.016003761112    6.026971356127    0.000000000000
 H    3.787722587819    6.789178061297    0.000000000000
 C    3.093962877587    4.645065604292    0.000000000000
 H    3.955845511736    3.986636332998    0.000000000000
