21

 C   -2.898371960258   -5.755143499413    0.000000000000
 H   -3.670091960258   -6.517353499413    0.000000000000
 C   -2.976341960258   -4.373233499413    0.000000000000
 H   -3.838221960258   -3.714813499413    0.000000000000
 N   -1.552541960258   -6.060103499413    0.000000000000
 H   -1.156411960258   -6.994673499413    0.000000000000
 N   -1.686421960258   -3.897093499413    0.000000000000
 H   -1.361031960258   -2.882903499413    0.000000000000
 C   -0.825781960258   -4.921143499413    0.000000000000
 H    0.255628039742   -4.842963499413    0.000000000000
CL   -0.515041960258   -1.190193499413    0.000000000000
 N    1.947274553221    4.499885356583    0.000000000000
 H    1.621876883764    3.485687658345    0.000000000000
 C    1.086635808696    5.523927338301    0.000000000000
 H    0.005228095498    5.445747732674    0.000000000000
 N    1.813392058499    6.662892886407    0.000000000000
 H    1.417263770681    7.597456357816    0.000000000000
 C    3.159222739310    6.357930952573    0.000000000000
 H    3.930941566017    7.120137657743    0.000000000000
 C    3.237181855785    4.976025200738    0.000000000000
 H    4.099064489934    4.317595929444    0.000000000000
