21

 C   -2.945906818585   -5.864990097448    0.000000000000
 H   -3.717626818585   -6.627200097448    0.000000000000
 C   -3.023876818585   -4.483080097448    0.000000000000
 H   -3.885756818585   -3.824660097448    0.000000000000
 N   -1.600076818585   -6.169950097448    0.000000000000
 H   -1.203946818585   -7.104520097448    0.000000000000
 N   -1.733956818585   -4.006940097448    0.000000000000
 H   -1.408566818585   -2.992750097448    0.000000000000
 C   -0.873316818585   -5.030990097448    0.000000000000
 H    0.208093181415   -4.952810097448    0.000000000000
CL   -0.562576818585   -1.300040097448    0.000000000000
 N    2.018884042321    4.665365154806    0.000000000000
 H    1.693486372863    3.651167456567    0.000000000000
 C    1.158245297795    5.689407136524    0.000000000000
 H    0.076837584598    5.611227530897    0.000000000000
 N    1.885001547598    6.828372684630    0.000000000000
 H    1.488873259780    7.762936156039    0.000000000000
 C    3.230832228409    6.523410750796    0.000000000000
 H    4.002551055116    7.285617455966    0.000000000000
 C    3.308791344884    5.141504998961    0.000000000000
 H    4.170673979034    4.483075727667    0.000000000000
