21

 C   -2.961751771361   -5.901605630126    0.000000000000
 H   -3.733471771361   -6.663815630126    0.000000000000
 C   -3.039721771361   -4.519695630126    0.000000000000
 H   -3.901601771361   -3.861275630126    0.000000000000
 N   -1.615921771361   -6.206565630126    0.000000000000
 H   -1.219791771361   -7.141135630126    0.000000000000
 N   -1.749801771361   -4.043555630126    0.000000000000
 H   -1.424411771361   -3.029365630126    0.000000000000
 C   -0.889161771361   -5.067605630126    0.000000000000
 H    0.192248228639   -4.989425630126    0.000000000000
CL   -0.578421771361   -1.336655630126    0.000000000000
 N    2.042753872020    4.720525087547    0.000000000000
 H    1.717356202563    3.706327389308    0.000000000000
 C    1.182115127495    5.744567069265    0.000000000000
 H    0.100707414297    5.666387463638    0.000000000000
 N    1.908871377298    6.883532617371    0.000000000000
 H    1.512743089480    7.818096088780    0.000000000000
 C    3.254702058109    6.578570683537    0.000000000000
 H    4.026420884816    7.340777388707    0.000000000000
 C    3.332661174584    5.196664931702    0.000000000000
 H    4.194543808733    4.538235660408    0.000000000000
