21

 C   -2.977596724136   -5.938221162805    0.000000000000
 H   -3.749316724136   -6.700431162805    0.000000000000
 C   -3.055566724136   -4.556311162805    0.000000000000
 H   -3.917446724136   -3.897891162805    0.000000000000
 N   -1.631766724136   -6.243181162805    0.000000000000
 H   -1.235636724136   -7.177751162805    0.000000000000
 N   -1.765646724136   -4.080171162805    0.000000000000
 H   -1.440256724136   -3.065981162805    0.000000000000
 C   -0.905006724136   -5.104221162805    0.000000000000
 H    0.176403275864   -5.026041162805    0.000000000000
CL   -0.594266724136   -1.373271162805    0.000000000000
 N    2.066623701720    4.775685020288    0.000000000000
 H    1.741226032262    3.761487322049    0.000000000000
 C    1.205984957195    5.799727002006    0.000000000000
 H    0.124577243997    5.721547396378    0.000000000000
 N    1.932741206997    6.938692550112    0.000000000000
 H    1.536612919180    7.873256021521    0.000000000000
 C    3.278571887808    6.633730616278    0.000000000000
 H    4.050290714516    7.395937321448    0.000000000000
 C    3.356531004284    5.251824864443    0.000000000000
 H    4.218413638433    4.593395593149    0.000000000000
