21

 C   -3.025131582464   -6.048067760839    0.000000000000
 H   -3.796851582464   -6.810277760839    0.000000000000
 C   -3.103101582464   -4.666157760839    0.000000000000
 H   -3.964981582464   -4.007737760839    0.000000000000
 N   -1.679301582464   -6.353027760839    0.000000000000
 H   -1.283171582464   -7.287597760839    0.000000000000
 N   -1.813181582464   -4.190017760839    0.000000000000
 H   -1.487791582464   -3.175827760839    0.000000000000
 C   -0.952541582464   -5.214067760839    0.000000000000
 H    0.128868417536   -5.135887760839    0.000000000000
CL   -0.641801582464   -1.483117760839    0.000000000000
 N    2.138233190819    4.941164818510    0.000000000000
 H    1.812835521361    3.926967120272    0.000000000000
 C    1.277594446294    5.965206800229    0.000000000000
 H    0.196186733096    5.887027194601    0.000000000000
 N    2.004350696097    7.104172348335    0.000000000000
 H    1.608222408279    8.038735819743    0.000000000000
 C    3.350181376908    6.799210414501    0.000000000000
 H    4.121900203615    7.561417119670    0.000000000000
 C    3.428140493383    5.417304662666    0.000000000000
 H    4.290023127532    4.758875391372    0.000000000000
