21

 C   -3.104356346342   -6.231145424231    0.000000000000
 H   -3.876076346342   -6.993355424231    0.000000000000
 C   -3.182326346342   -4.849235424231    0.000000000000
 H   -4.044206346342   -4.190815424231    0.000000000000
 N   -1.758526346342   -6.536105424231    0.000000000000
 H   -1.362396346342   -7.470675424231    0.000000000000
 N   -1.892406346342   -4.373095424231    0.000000000000
 H   -1.567016346342   -3.358905424231    0.000000000000
 C   -1.031766346342   -5.397145424231    0.000000000000
 H    0.049643653658   -5.318965424231    0.000000000000
CL   -0.721026346342   -1.666195424231    0.000000000000
 N    2.257582339318    5.216964482215    0.000000000000
 H    1.932184669860    4.202766783977    0.000000000000
 C    1.396943594792    6.241006463934    0.000000000000
 H    0.315535881595    6.162826858306    0.000000000000
 N    2.123699844595    7.379972012040    0.000000000000
 H    1.727571556777    8.314535483448    0.000000000000
 C    3.469530525406    7.075010078206    0.000000000000
 H    4.241249352114    7.837216783375    0.000000000000
 C    3.547489641881    5.693104326371    0.000000000000
 H    4.409372276031    5.034675055077    0.000000000000
