21

 C   -3.120201299118   -6.267760956909    0.000000000000
 H   -3.891921299118   -7.029970956909    0.000000000000
 C   -3.198171299118   -4.885850956909    0.000000000000
 H   -4.060051299118   -4.227430956909    0.000000000000
 N   -1.774371299118   -6.572720956909    0.000000000000
 H   -1.378241299118   -7.507290956909    0.000000000000
 N   -1.908251299118   -4.409710956909    0.000000000000
 H   -1.582861299118   -3.395520956909    0.000000000000
 C   -1.047611299118   -5.433760956909    0.000000000000
 H    0.033798700882   -5.355580956909    0.000000000000
CL   -0.736871299118   -1.702810956909    0.000000000000
 N    2.281452169017    5.272124414956    0.000000000000
 H    1.956054499560    4.257926716718    0.000000000000
 C    1.420813424492    6.296166396675    0.000000000000
 H    0.339405711294    6.217986791047    0.000000000000
 N    2.147569674295    7.435131944781    0.000000000000
 H    1.751441386477    8.369695416189    0.000000000000
 C    3.493400355106    7.130170010947    0.000000000000
 H    4.265119181813    7.892376716116    0.000000000000
 C    3.571359471581    5.748264259112    0.000000000000
 H    4.433242105730    5.089834987818    0.000000000000
