21

 C   -3.136046251894   -6.304376489588    0.000000000000
 H   -3.907766251894   -7.066586489588    0.000000000000
 C   -3.214016251894   -4.922466489588    0.000000000000
 H   -4.075896251894   -4.264046489588    0.000000000000
 N   -1.790216251894   -6.609336489588    0.000000000000
 H   -1.394086251894   -7.543906489588    0.000000000000
 N   -1.924096251894   -4.446326489588    0.000000000000
 H   -1.598706251894   -3.432136489588    0.000000000000
 C   -1.063456251894   -5.470376489588    0.000000000000
 H    0.017953748106   -5.392196489588    0.000000000000
CL   -0.752716251894   -1.739426489588    0.000000000000
 N    2.305321998717    5.327284347697    0.000000000000
 H    1.979924329259    4.313086649459    0.000000000000
 C    1.444683254192    6.351326329416    0.000000000000
 H    0.363275540994    6.273146723788    0.000000000000
 N    2.171439503995    7.490291877522    0.000000000000
 H    1.775311216177    8.424855348930    0.000000000000
 C    3.517270184805    7.185329943688    0.000000000000
 H    4.288989011513    7.947536648857    0.000000000000
 C    3.595229301281    5.803424191853    0.000000000000
 H    4.457111935430    5.144994920559    0.000000000000
