21

 C   -3.151891204670   -6.340992022266    0.000000000000
 H   -3.923611204670   -7.103202022266    0.000000000000
 C   -3.229861204670   -4.959082022266    0.000000000000
 H   -4.091741204670   -4.300662022266    0.000000000000
 N   -1.806061204670   -6.645952022266    0.000000000000
 H   -1.409931204670   -7.580522022266    0.000000000000
 N   -1.939941204670   -4.482942022266    0.000000000000
 H   -1.614551204670   -3.468752022266    0.000000000000
 C   -1.079301204670   -5.506992022266    0.000000000000
 H    0.002108795330   -5.428812022266    0.000000000000
CL   -0.768561204670   -1.776042022266    0.000000000000
 N    2.329191828417    5.382444280438    0.000000000000
 H    2.003794158959    4.368246582200    0.000000000000
 C    1.468553083892    6.406486262157    0.000000000000
 H    0.387145370694    6.328306656529    0.000000000000
 N    2.195309333694    7.545451810263    0.000000000000
 H    1.799181045876    8.480015281671    0.000000000000
 C    3.541140014505    7.240489876429    0.000000000000
 H    4.312858841213    8.002696581598    0.000000000000
 C    3.619099130981    5.858584124594    0.000000000000
 H    4.480981765130    5.200154853300    0.000000000000
