21

 C   -3.167736157446   -6.377607554944    0.000000000000
 H   -3.939456157446   -7.139817554944    0.000000000000
 C   -3.245706157446   -4.995697554944    0.000000000000
 H   -4.107586157446   -4.337277554944    0.000000000000
 N   -1.821906157446   -6.682567554944    0.000000000000
 H   -1.425776157446   -7.617137554944    0.000000000000
 N   -1.955786157446   -4.519557554944    0.000000000000
 H   -1.630396157446   -3.505367554944    0.000000000000
 C   -1.095146157446   -5.543607554944    0.000000000000
 H   -0.013736157446   -5.465427554944    0.000000000000
CL   -0.784406157446   -1.812657554944    0.000000000000
 N    2.353061658116    5.437604213179    0.000000000000
 H    2.027663988659    4.423406514941    0.000000000000
 C    1.492422913591    6.461646194898    0.000000000000
 H    0.411015200393    6.383466589270    0.000000000000
 N    2.219179163394    7.600611743004    0.000000000000
 H    1.823050875576    8.535175214412    0.000000000000
 C    3.565009844205    7.295649809170    0.000000000000
 H    4.336728670912    8.057856514339    0.000000000000
 C    3.642968960680    5.913744057335    0.000000000000
 H    4.504851594829    5.255314786041    0.000000000000
