21

 C   -3.215271015773   -6.487454152979    0.000000000000
 H   -3.986991015773   -7.249664152979    0.000000000000
 C   -3.293241015773   -5.105544152979    0.000000000000
 H   -4.155121015773   -4.447124152979    0.000000000000
 N   -1.869441015773   -6.792414152979    0.000000000000
 H   -1.473311015773   -7.726984152979    0.000000000000
 N   -2.003321015773   -4.629404152979    0.000000000000
 H   -1.677931015773   -3.615214152979    0.000000000000
 C   -1.142681015773   -5.653454152979    0.000000000000
 H   -0.061271015773   -5.575274152979    0.000000000000
CL   -0.831941015773   -1.922504152979    0.000000000000
 N    2.424671147215    5.603084011402    0.000000000000
 H    2.099273477758    4.588886313164    0.000000000000
 C    1.564032402690    6.627125993121    0.000000000000
 H    0.482624689492    6.548946387493    0.000000000000
 N    2.290788652493    7.766091541227    0.000000000000
 H    1.894660364675    8.700655012635    0.000000000000
 C    3.636619333304    7.461129607393    0.000000000000
 H    4.408338160011    8.223336312562    0.000000000000
 C    3.714578449779    6.079223855558    0.000000000000
 H    4.576461083928    5.420794584264    0.000000000000
