21

 C   -3.310340732427   -6.707147349049    0.000000000000
 H   -4.082060732427   -7.469357349049    0.000000000000
 C   -3.388310732427   -5.325237349049    0.000000000000
 H   -4.250190732427   -4.666817349049    0.000000000000
 N   -1.964510732427   -7.012107349049    0.000000000000
 H   -1.568380732427   -7.946677349049    0.000000000000
 N   -2.098390732427   -4.849097349049    0.000000000000
 H   -1.773000732427   -3.834907349049    0.000000000000
 C   -1.237750732427   -5.873147349049    0.000000000000
 H   -0.156340732427   -5.794967349049    0.000000000000
CL   -0.927010732427   -2.142197349049    0.000000000000
 N    2.567890125414    5.934043607848    0.000000000000
 H    2.242492455956    4.919845909610    0.000000000000
 C    1.707251380889    6.958085589567    0.000000000000
 H    0.625843667691    6.879905983939    0.000000000000
 N    2.434007630691    8.097051137673    0.000000000000
 H    2.037879342873    9.031614609081    0.000000000000
 C    3.779838311502    7.792089203839    0.000000000000
 H    4.551557138210    8.554295909008    0.000000000000
 C    3.857797427978    6.410183452003    0.000000000000
 H    4.719680062127    5.751754180710    0.000000000000
