21

 C   -3.342030637979   -6.780378414406    0.000000000000
 H   -4.113750637979   -7.542588414406    0.000000000000
 C   -3.420000637979   -5.398468414406    0.000000000000
 H   -4.281880637979   -4.740048414406    0.000000000000
 N   -1.996200637979   -7.085338414406    0.000000000000
 H   -1.600070637979   -8.019908414406    0.000000000000
 N   -2.130080637979   -4.922328414406    0.000000000000
 H   -1.804690637979   -3.908138414406    0.000000000000
 C   -1.269440637979   -5.946378414406    0.000000000000
 H   -0.188030637979   -5.868198414406    0.000000000000
CL   -0.958700637979   -2.215428414406    0.000000000000
 N    2.615629784813    6.044363473330    0.000000000000
 H    2.290232115355    5.030165775092    0.000000000000
 C    1.754991040288    7.068405455049    0.000000000000
 H    0.673583327090    6.990225849421    0.000000000000
 N    2.481747290091    8.207371003155    0.000000000000
 H    2.085619002273    9.141934474563    0.000000000000
 C    3.827577970902    7.902409069321    0.000000000000
 H    4.599296797609    8.664615774490    0.000000000000
 C    3.905537087377    6.520503317485    0.000000000000
 H    4.767419721526    5.862074046192    0.000000000000
