21

 C   -3.357875590755   -6.816993947084    0.000000000000
 H   -4.129595590755   -7.579203947084    0.000000000000
 C   -3.435845590755   -5.435083947084    0.000000000000
 H   -4.297725590755   -4.776663947084    0.000000000000
 N   -2.012045590755   -7.121953947084    0.000000000000
 H   -1.615915590755   -8.056523947084    0.000000000000
 N   -2.145925590755   -4.958943947084    0.000000000000
 H   -1.820535590755   -3.944753947084    0.000000000000
 C   -1.285285590755   -5.982993947084    0.000000000000
 H   -0.203875590755   -5.904813947084    0.000000000000
CL   -0.974545590755   -2.252043947084    0.000000000000
 N    2.639499614513    6.099523406071    0.000000000000
 H    2.314101945055    5.085325707833    0.000000000000
 C    1.778860869988    7.123565387790    0.000000000000
 H    0.697453156790    7.045385782162    0.000000000000
 N    2.505617119790    8.262530935896    0.000000000000
 H    2.109488831973    9.197094407304    0.000000000000
 C    3.851447800601    7.957569002062    0.000000000000
 H    4.623166627309    8.719775707231    0.000000000000
 C    3.929406917077    6.575663250226    0.000000000000
 H    4.791289551226    5.917233978933    0.000000000000
