21

 C   -3.405410449082   -6.926840545119    0.000000000000
 H   -4.177130449082   -7.689050545119    0.000000000000
 C   -3.483380449082   -5.544930545119    0.000000000000
 H   -4.345260449082   -4.886510545119    0.000000000000
 N   -2.059580449082   -7.231800545119    0.000000000000
 H   -1.663450449082   -8.166370545119    0.000000000000
 N   -2.193460449082   -5.068790545119    0.000000000000
 H   -1.868070449082   -4.054600545119    0.000000000000
 C   -1.332820449082   -6.092840545119    0.000000000000
 H   -0.251410449082   -6.014660545119    0.000000000000
CL   -1.022080449082   -2.361890545119    0.000000000000
 N    2.711109103612    6.265003204294    0.000000000000
 H    2.385711434154    5.250805506056    0.000000000000
 C    1.850470359087    7.289045186012    0.000000000000
 H    0.769062645889    7.210865580385    0.000000000000
 N    2.577226608889    8.428010734119    0.000000000000
 H    2.181098321072    9.362574205527    0.000000000000
 C    3.923057289700    8.123048800284    0.000000000000
 H    4.694776116408    8.885255505454    0.000000000000
 C    4.001016406176    6.741143048449    0.000000000000
 H    4.862899040325    6.082713777156    0.000000000000
