21

 C   -3.484635212961   -7.109918208510    0.000000000000
 H   -4.256355212961   -7.872128208510    0.000000000000
 C   -3.562605212961   -5.728008208510    0.000000000000
 H   -4.424485212961   -5.069588208510    0.000000000000
 N   -2.138805212961   -7.414878208510    0.000000000000
 H   -1.742675212961   -8.349448208510    0.000000000000
 N   -2.272685212961   -5.251868208510    0.000000000000
 H   -1.947295212961   -4.237678208510    0.000000000000
 C   -1.412045212961   -6.275918208510    0.000000000000
 H   -0.330635212961   -6.197738208510    0.000000000000
CL   -1.101305212961   -2.544968208510    0.000000000000
 N    2.830458252110    6.540802867999    0.000000000000
 H    2.505060582653    5.526605169761    0.000000000000
 C    1.969819507585    7.564844849717    0.000000000000
 H    0.888411794387    7.486665244090    0.000000000000
 N    2.696575757388    8.703810397824    0.000000000000
 H    2.300447469570    9.638373869232    0.000000000000
 C    4.042406438199    8.398848463989    0.000000000000
 H    4.814125264906    9.161055169159    0.000000000000
 C    4.120365554674    7.016942712154    0.000000000000
 H    4.982248188823    6.358513440860    0.000000000000
