26

 C   -4.462925083954   -1.001918566414    0.000000000000
 H   -5.392695083954   -1.574808566414    0.000000000000
 C   -4.483165083954    0.408861433586    0.000000000000
 H   -5.439435083954    0.940641433586    0.000000000000
 C   -3.220715083954   -1.651128566414    0.000000000000
 H   -3.180615083954   -2.745508566414    0.000000000000
 C   -3.290795083954    1.142581433586    0.000000000000
 H   -3.309215083954    2.236941433586    0.000000000000
 C   -2.014945083954   -0.924388566414    0.000000000000
 H   -1.078715083954   -1.493808566414    0.000000000000
 C   -2.007785083954    0.515151433586    0.000000000000
 O   -0.896875083954    1.231601433586    0.000000000000
 K    0.135684916046   -0.186328566414    1.785690000000
 K    0.135684916046   -0.186328566414   -1.785690000000
 O    0.783222541695   -1.075538903380    0.000000000000
 C    1.894140361124   -0.359083987439    0.000000000000
 C    1.901292070511    1.080458247667    0.000000000000
 H    0.965055537801    1.649877947730    0.000000000000
 C    3.107062834405    1.807203380048    0.000000000000
 H    3.066961952406    2.901588930785    0.000000000000
 C    4.349265589784    1.157995448082    0.000000000000
 H    5.279046815202    1.730892581048    0.000000000000
 C    4.369514550239   -0.252779241938    0.000000000000
 H    5.325782845085   -0.784550640823    0.000000000000
 C    3.177138249870   -0.986503140908    0.000000000000
 H    3.195565341407   -2.080868012739    0.000000000000
