26

 C   -4.525160693268   -0.916455506142    0.000000000000
 H   -5.454930693268   -1.489345506142    0.000000000000
 C   -4.545400693268    0.494324493858    0.000000000000
 H   -5.501670693268    1.026104493858    0.000000000000
 C   -3.282950693268   -1.565665506142    0.000000000000
 H   -3.242850693268   -2.660045506142    0.000000000000
 C   -3.353030693268    1.228044493858    0.000000000000
 H   -3.371450693268    2.322404493858    0.000000000000
 C   -2.077180693268   -0.838925506142    0.000000000000
 H   -1.140950693268   -1.408345506142    0.000000000000
 C   -2.070020693268    0.600614493858    0.000000000000
 O   -0.959110693268    1.317064493858    0.000000000000
 K    0.073449306732   -0.100865506142    1.785690000000
 K    0.073449306732   -0.100865506142   -1.785690000000
 O    0.897588103014   -1.232587753190    0.000000000000
 C    2.008505922442   -0.516132837249    0.000000000000
 C    2.015657631829    0.923409397857    0.000000000000
 H    1.079421099120    1.492829097920    0.000000000000
 C    3.221428395723    1.650154530238    0.000000000000
 H    3.181327513724    2.744540080975    0.000000000000
 C    4.463631151102    1.000946598272    0.000000000000
 H    5.393412376520    1.573843731238    0.000000000000
 C    4.483880111557   -0.409828091748    0.000000000000
 H    5.440148406403   -0.941599490634    0.000000000000
 C    3.291503811189   -1.143551990718    0.000000000000
 H    3.309930902725   -2.237916862549    0.000000000000
