26

 C   -4.587396302581   -0.830992445871    0.000000000000
 H   -5.517166302581   -1.403882445871    0.000000000000
 C   -4.607636302581    0.579787554129    0.000000000000
 H   -5.563906302581    1.111567554129    0.000000000000
 C   -3.345186302581   -1.480202445871    0.000000000000
 H   -3.305086302581   -2.574582445871    0.000000000000
 C   -3.415266302581    1.313507554129    0.000000000000
 H   -3.433686302581    2.407867554129    0.000000000000
 C   -2.139416302581   -0.753462445871    0.000000000000
 H   -1.203186302581   -1.322882445871    0.000000000000
 C   -2.132256302581    0.686077554129    0.000000000000
 O   -1.021346302581    1.402527554129    0.000000000000
 K    0.011213697419   -0.015402445871    1.785690000000
 K    0.011213697419   -0.015402445871   -1.785690000000
 O    1.011953664332   -1.389636603001    0.000000000000
 C    2.122871483760   -0.673181687059    0.000000000000
 C    2.130023193148    0.766360548046    0.000000000000
 H    1.193786660438    1.335780248109    0.000000000000
 C    3.335793957041    1.493105680427    0.000000000000
 H    3.295693075042    2.587491231165    0.000000000000
 C    4.577996712421    0.843897748461    0.000000000000
 H    5.507777937838    1.416794881428    0.000000000000
 C    4.598245672876   -0.566876941559    0.000000000000
 H    5.554513967721   -1.098648340444    0.000000000000
 C    3.405869372507   -1.300600840528    0.000000000000
 H    3.424296464043   -2.394965712359    0.000000000000
