26

 C   -4.691122318104   -0.688554012085    0.000000000000
 H   -5.620892318104   -1.261444012085    0.000000000000
 C   -4.711362318104    0.722225987915    0.000000000000
 H   -5.667632318104    1.254005987915    0.000000000000
 C   -3.448912318104   -1.337764012085    0.000000000000
 H   -3.408812318104   -2.432144012085    0.000000000000
 C   -3.518992318104    1.455945987915    0.000000000000
 H   -3.537412318104    2.550305987915    0.000000000000
 C   -2.243142318104   -0.611024012085    0.000000000000
 H   -1.306912318104   -1.180444012085    0.000000000000
 C   -2.235982318104    0.828515987915    0.000000000000
 O   -1.125072318104    1.544965987915    0.000000000000
 K   -0.092512318104    0.127035987915    1.785690000000
 K   -0.092512318104    0.127035987915   -1.785690000000
 O    1.202562933196   -1.651384686018    0.000000000000
 C    2.313480752624   -0.934929770076    0.000000000000
 C    2.320632462011    0.504612465029    0.000000000000
 H    1.384395929302    1.074032165092    0.000000000000
 C    3.526403225905    1.231357597410    0.000000000000
 H    3.486302343906    2.325743148148    0.000000000000
 C    4.768605981285    0.582149665444    0.000000000000
 H    5.698387206702    1.155046798411    0.000000000000
 C    4.788854941739   -0.828625024576    0.000000000000
 H    5.745123236585   -1.360396423461    0.000000000000
 C    3.596478641371   -1.562348923545    0.000000000000
 H    3.614905732907   -2.656713795376    0.000000000000
