26

 C   -4.711867521208   -0.660066325328    0.000000000000
 H   -5.641637521208   -1.232956325328    0.000000000000
 C   -4.732107521208    0.750713674672    0.000000000000
 H   -5.688377521208    1.282493674672    0.000000000000
 C   -3.469657521208   -1.309276325328    0.000000000000
 H   -3.429557521208   -2.403656325328    0.000000000000
 C   -3.539737521208    1.484433674672    0.000000000000
 H   -3.558157521208    2.578793674672    0.000000000000
 C   -2.263887521208   -0.582536325328    0.000000000000
 H   -1.327657521208   -1.151956325328    0.000000000000
 C   -2.256727521208    0.857003674672    0.000000000000
 O   -1.145817521208    1.573453674672    0.000000000000
 K   -0.113257521208    0.155523674672    1.785690000000
 K   -0.113257521208    0.155523674672   -1.785690000000
 O    1.240684786969   -1.703734302621    0.000000000000
 C    2.351602606397   -0.987279386680    0.000000000000
 C    2.358754315784    0.452262848426    0.000000000000
 H    1.422517783075    1.021682548489    0.000000000000
 C    3.564525079678    1.179007980807    0.000000000000
 H    3.524424197679    2.273393531544    0.000000000000
 C    4.806727835057    0.529800048841    0.000000000000
 H    5.736509060475    1.102697181807    0.000000000000
 C    4.826976795512   -0.880974641179    0.000000000000
 H    5.783245090358   -1.412746040064    0.000000000000
 C    3.634600495144   -1.614698540149    0.000000000000
 H    3.653027586680   -2.709063411980    0.000000000000
