26

 C   -4.732612724313   -0.631578638571    0.000000000000
 H   -5.662382724313   -1.204468638571    0.000000000000
 C   -4.752852724313    0.779201361429    0.000000000000
 H   -5.709122724313    1.310981361429    0.000000000000
 C   -3.490402724313   -1.280788638571    0.000000000000
 H   -3.450302724313   -2.375168638571    0.000000000000
 C   -3.560482724313    1.512921361429    0.000000000000
 H   -3.578902724313    2.607281361429    0.000000000000
 C   -2.284632724313   -0.554048638571    0.000000000000
 H   -1.348402724313   -1.123468638571    0.000000000000
 C   -2.277472724313    0.885491361429    0.000000000000
 O   -1.166562724313    1.601941361429    0.000000000000
 K   -0.134002724313    0.184011361429    1.785690000000
 K   -0.134002724313    0.184011361429   -1.785690000000
 O    1.278806640742   -1.756083919224    0.000000000000
 C    2.389724460170   -1.039629003283    0.000000000000
 C    2.396876169557    0.399913231823    0.000000000000
 H    1.460639636847    0.969332931885    0.000000000000
 C    3.602646933451    1.126658364203    0.000000000000
 H    3.562546051452    2.221043914941    0.000000000000
 C    4.844849688830    0.477450432237    0.000000000000
 H    5.774630914248    1.050347565204    0.000000000000
 C    4.865098649285   -0.933324257783    0.000000000000
 H    5.821366944131   -1.465095656668    0.000000000000
 C    3.672722348916   -1.667048156752    0.000000000000
 H    3.691149440453   -2.761413028583    0.000000000000
