26

 C   -4.753357927417   -0.603090951814    0.000000000000
 H   -5.683127927417   -1.175980951814    0.000000000000
 C   -4.773597927417    0.807689048186    0.000000000000
 H   -5.729867927417    1.339469048186    0.000000000000
 C   -3.511147927417   -1.252300951814    0.000000000000
 H   -3.471047927417   -2.346680951814    0.000000000000
 C   -3.581227927417    1.541409048186    0.000000000000
 H   -3.599647927417    2.635769048186    0.000000000000
 C   -2.305377927417   -0.525560951814    0.000000000000
 H   -1.369147927417   -1.094980951814    0.000000000000
 C   -2.298217927417    0.913979048186    0.000000000000
 O   -1.187307927417    1.630429048186    0.000000000000
 K   -0.154747927417    0.212499048186    1.785690000000
 K   -0.154747927417    0.212499048186   -1.785690000000
 O    1.316928494514   -1.808433535828    0.000000000000
 C    2.427846313943   -1.091978619887    0.000000000000
 C    2.434998023330    0.347563615219    0.000000000000
 H    1.498761490620    0.916983315282    0.000000000000
 C    3.640768787223    1.074308747600    0.000000000000
 H    3.600667905225    2.168694298337    0.000000000000
 C    4.882971542603    0.425100815634    0.000000000000
 H    5.812752768020    0.997997948600    0.000000000000
 C    4.903220503058   -0.985673874386    0.000000000000
 H    5.859488797904   -1.517445273271    0.000000000000
 C    3.710844202689   -1.719397773356    0.000000000000
 H    3.729271294226   -2.813762645187    0.000000000000
