26

 C   -4.774103130522   -0.574603265057    0.000000000000
 H   -5.703873130522   -1.147493265057    0.000000000000
 C   -4.794343130522    0.836176734943    0.000000000000
 H   -5.750613130522    1.367956734943    0.000000000000
 C   -3.531893130522   -1.223813265057    0.000000000000
 H   -3.491793130522   -2.318193265057    0.000000000000
 C   -3.601973130522    1.569896734943    0.000000000000
 H   -3.620393130522    2.664256734943    0.000000000000
 C   -2.326123130522   -0.497073265057    0.000000000000
 H   -1.389893130522   -1.066493265057    0.000000000000
 C   -2.318963130522    0.942466734943    0.000000000000
 O   -1.208053130522    1.658916734943    0.000000000000
 K   -0.175493130522    0.240986734943    1.785690000000
 K   -0.175493130522    0.240986734943   -1.785690000000
 O    1.355050348287   -1.860783152431    0.000000000000
 C    2.465968167715   -1.144328236490    0.000000000000
 C    2.473119877103    0.295213998616    0.000000000000
 H    1.536883344393    0.864633698679    0.000000000000
 C    3.678890640996    1.021959130997    0.000000000000
 H    3.638789758997    2.116344681734    0.000000000000
 C    4.921093396376    0.372751199030    0.000000000000
 H    5.850874621793    0.945648331997    0.000000000000
 C    4.941342356831   -1.038023490989    0.000000000000
 H    5.897610651676   -1.569794889875    0.000000000000
 C    3.748966056462   -1.771747389959    0.000000000000
 H    3.767393147998   -2.866112261790    0.000000000000
