26

 C   -4.815593536731   -0.517627891542    0.000000000000
 H   -5.745363536731   -1.090517891542    0.000000000000
 C   -4.835833536731    0.893152108458    0.000000000000
 H   -5.792103536731    1.424932108458    0.000000000000
 C   -3.573383536731   -1.166837891542    0.000000000000
 H   -3.533283536731   -2.261217891542    0.000000000000
 C   -3.643463536731    1.626872108458    0.000000000000
 H   -3.661883536731    2.721232108458    0.000000000000
 C   -2.367613536731   -0.440097891542    0.000000000000
 H   -1.431383536731   -1.009517891542    0.000000000000
 C   -2.360453536731    0.999442108458    0.000000000000
 O   -1.249543536731    1.715892108458    0.000000000000
 K   -0.216983536731    0.297962108458    1.785690000000
 K   -0.216983536731    0.297962108458   -1.785690000000
 O    1.431294055833   -1.965482385638    0.000000000000
 C    2.542211875261   -1.249027469697    0.000000000000
 C    2.549363584648    0.190514765409    0.000000000000
 H    1.613127051938    0.759934465472    0.000000000000
 C    3.755134348542    0.917259897790    0.000000000000
 H    3.715033466543    2.011645448527    0.000000000000
 C    4.997337103921    0.268051965824    0.000000000000
 H    5.927118329339    0.840949098790    0.000000000000
 C    5.017586064376   -1.142722724196    0.000000000000
 H    5.973854359222   -1.674494123082    0.000000000000
 C    3.825209764007   -1.876446623166    0.000000000000
 H    3.843636855544   -2.970811494997    0.000000000000
