26

 C   -4.857083942940   -0.460652518028    0.000000000000
 H   -5.786853942940   -1.033542518028    0.000000000000
 C   -4.877323942940    0.950127481972    0.000000000000
 H   -5.833593942940    1.481907481972    0.000000000000
 C   -3.614873942940   -1.109862518028    0.000000000000
 H   -3.574773942940   -2.204242518028    0.000000000000
 C   -3.684953942940    1.683847481972    0.000000000000
 H   -3.703373942940    2.778207481972    0.000000000000
 C   -2.409103942940   -0.383122518028    0.000000000000
 H   -1.472873942940   -0.952542518028    0.000000000000
 C   -2.401943942940    1.056417481972    0.000000000000
 O   -1.291033942940    1.772867481972    0.000000000000
 K   -0.258473942940    0.354937481972    1.785690000000
 K   -0.258473942940    0.354937481972   -1.785690000000
 O    1.507537763378   -2.070181618845    0.000000000000
 C    2.618455582807   -1.353726702904    0.000000000000
 C    2.625607292194    0.085815532202    0.000000000000
 H    1.689370759484    0.655235232265    0.000000000000
 C    3.831378056087    0.812560664583    0.000000000000
 H    3.791277174088    1.906946215320    0.000000000000
 C    5.073580811467    0.163352732617    0.000000000000
 H    6.003362036884    0.736249865583    0.000000000000
 C    5.093829771922   -1.247421957403    0.000000000000
 H    6.050098066768   -1.779193356288    0.000000000000
 C    3.901453471553   -1.981145856373    0.000000000000
 H    3.919880563089   -3.075510728204    0.000000000000
