26

 C   -4.919319552253   -0.375189457757    0.000000000000
 H   -5.849089552253   -0.948079457757    0.000000000000
 C   -4.939559552253    1.035590542243    0.000000000000
 H   -5.895829552253    1.567370542243    0.000000000000
 C   -3.677109552253   -1.024399457757    0.000000000000
 H   -3.637009552253   -2.118779457757    0.000000000000
 C   -3.747189552253    1.769310542243    0.000000000000
 H   -3.765609552253    2.863670542243    0.000000000000
 C   -2.471339552253   -0.297659457757    0.000000000000
 H   -1.535109552253   -0.867079457757    0.000000000000
 C   -2.464179552253    1.141880542243    0.000000000000
 O   -1.353269552253    1.858330542243    0.000000000000
 K   -0.320709552253    0.440400542243    1.785690000000
 K   -0.320709552253    0.440400542243   -1.785690000000
 O    1.621903324697   -2.227230468655    0.000000000000
 C    2.732821144125   -1.510775552714    0.000000000000
 C    2.739972853512   -0.071233317608    0.000000000000
 H    1.803736320802    0.498186382455    0.000000000000
 C    3.945743617406    0.655511814773    0.000000000000
 H    3.905642735407    1.749897365510    0.000000000000
 C    5.187946372785    0.006303882806    0.000000000000
 H    6.117727598203    0.579201015773    0.000000000000
 C    5.208195333240   -1.404470807213    0.000000000000
 H    6.164463628086   -1.936242206099    0.000000000000
 C    4.015819032871   -2.138194706183    0.000000000000
 H    4.034246124408   -3.232559578014    0.000000000000
