26

 C   -4.940064755358   -0.346701770999    0.000000000000
 H   -5.869834755358   -0.919591770999    0.000000000000
 C   -4.960304755358    1.064078229001    0.000000000000
 H   -5.916574755358    1.595858229001    0.000000000000
 C   -3.697854755358   -0.995911770999    0.000000000000
 H   -3.657754755358   -2.090291770999    0.000000000000
 C   -3.767934755358    1.797798229001    0.000000000000
 H   -3.786354755358    2.892158229001    0.000000000000
 C   -2.492084755358   -0.269171770999    0.000000000000
 H   -1.555854755358   -0.838591770999    0.000000000000
 C   -2.484924755358    1.170368229001    0.000000000000
 O   -1.374014755358    1.886818229001    0.000000000000
 K   -0.341454755358    0.468888229001    1.785690000000
 K   -0.341454755358    0.468888229001   -1.785690000000
 O    1.660025178469   -2.279580085259    0.000000000000
 C    2.770942997898   -1.563125169317    0.000000000000
 C    2.778094707285   -0.123582934212    0.000000000000
 H    1.841858174575    0.445836765851    0.000000000000
 C    3.983865471178    0.603162198169    0.000000000000
 H    3.943764589180    1.697547748907    0.000000000000
 C    5.226068226558   -0.046045733797    0.000000000000
 H    6.155849451975    0.526851399169    0.000000000000
 C    5.246317187013   -1.456820423817    0.000000000000
 H    6.202585481859   -1.988591822702    0.000000000000
 C    4.053940886644   -2.190544322786    0.000000000000
 H    4.072367978181   -3.284909194617    0.000000000000
