26

 C   -4.960809958462   -0.318214084242    0.000000000000
 H   -5.890579958462   -0.891104084242    0.000000000000
 C   -4.981049958462    1.092565915758    0.000000000000
 H   -5.937319958462    1.624345915758    0.000000000000
 C   -3.718599958462   -0.967424084242    0.000000000000
 H   -3.678499958462   -2.061804084242    0.000000000000
 C   -3.788679958462    1.826285915758    0.000000000000
 H   -3.807099958462    2.920645915758    0.000000000000
 C   -2.512829958462   -0.240684084242    0.000000000000
 H   -1.576599958462   -0.810104084242    0.000000000000
 C   -2.505669958462    1.198855915758    0.000000000000
 O   -1.394759958462    1.915305915758    0.000000000000
 K   -0.362199958462    0.497375915758    1.785690000000
 K   -0.362199958462    0.497375915758   -1.785690000000
 O    1.698147032242   -2.331929701862    0.000000000000
 C    2.809064851670   -1.615474785921    0.000000000000
 C    2.816216561058   -0.175932550815    0.000000000000
 H    1.879980028348    0.393487149248    0.000000000000
 C    4.021987324951    0.550812581566    0.000000000000
 H    3.981886442952    1.645198132303    0.000000000000
 C    5.264190080331   -0.098395350400    0.000000000000
 H    6.193971305748    0.474501782566    0.000000000000
 C    5.284439040785   -1.509170040420    0.000000000000
 H    6.240707335631   -2.040941439306    0.000000000000
 C    4.092062740417   -2.242893939390    0.000000000000
 H    4.110489831953   -3.337258811221    0.000000000000
