26

 C   -5.023045567776   -0.232751023971    0.000000000000
 H   -5.952815567776   -0.805641023971    0.000000000000
 C   -5.043285567776    1.178028976029    0.000000000000
 H   -5.999555567776    1.709808976029    0.000000000000
 C   -3.780835567776   -0.881961023971    0.000000000000
 H   -3.740735567776   -1.976341023971    0.000000000000
 C   -3.850915567776    1.911748976029    0.000000000000
 H   -3.869335567776    3.006108976029    0.000000000000
 C   -2.575065567776   -0.155221023971    0.000000000000
 H   -1.638835567776   -0.724641023971    0.000000000000
 C   -2.567905567776    1.284318976029    0.000000000000
 O   -1.456995567776    2.000768976029    0.000000000000
 K   -0.424435567776    0.582838976029    1.785690000000
 K   -0.424435567776    0.582838976029   -1.785690000000
 O    1.812512593560   -2.488978551672    0.000000000000
 C    2.923430412989   -1.772523635731    0.000000000000
 C    2.930582122376   -0.332981400625    0.000000000000
 H    1.994345589666    0.236438299437    0.000000000000
 C    4.136352886270    0.393763731755    0.000000000000
 H    4.096252004271    1.488149282493    0.000000000000
 C    5.378555641649   -0.255444200211    0.000000000000
 H    6.308336867067    0.317452932756    0.000000000000
 C    5.398804602104   -1.666218890230    0.000000000000
 H    6.355072896950   -2.197990289116    0.000000000000
 C    4.206428301735   -2.399942789200    0.000000000000
 H    4.224855393272   -3.494307661031    0.000000000000
