26

 C   -5.085281177089   -0.147287963699    0.000000000000
 H   -6.015051177089   -0.720177963699    0.000000000000
 C   -5.105521177089    1.263492036301    0.000000000000
 H   -6.061791177089    1.795272036301    0.000000000000
 C   -3.843071177089   -0.796497963699    0.000000000000
 H   -3.802971177089   -1.890877963699    0.000000000000
 C   -3.913151177089    1.997212036301    0.000000000000
 H   -3.931571177089    3.091572036301    0.000000000000
 C   -2.637301177089   -0.069757963699    0.000000000000
 H   -1.701071177089   -0.639177963699    0.000000000000
 C   -2.630141177089    1.369782036301    0.000000000000
 O   -1.519231177089    2.086232036301    0.000000000000
 K   -0.486671177089    0.668302036301    1.785690000000
 K   -0.486671177089    0.668302036301   -1.785690000000
 O    1.926878154879   -2.646027401483    0.000000000000
 C    3.037795974307   -1.929572485541    0.000000000000
 C    3.044947683694   -0.490030250436    0.000000000000
 H    2.108711150985    0.079389449627    0.000000000000
 C    4.250718447588    0.236714881945    0.000000000000
 H    4.210617565589    1.331100432683    0.000000000000
 C    5.492921202967   -0.412493050021    0.000000000000
 H    6.422702428385    0.160404082945    0.000000000000
 C    5.513170163422   -1.823267740041    0.000000000000
 H    6.469438458268   -2.355039138926    0.000000000000
 C    4.320793863054   -2.556991639010    0.000000000000
 H    4.339220954590   -3.651356510841    0.000000000000
