26

 C   -5.106026380194   -0.118800276942    0.000000000000
 H   -6.035796380194   -0.691690276942    0.000000000000
 C   -5.126266380194    1.291979723058    0.000000000000
 H   -6.082536380194    1.823759723058    0.000000000000
 C   -3.863816380194   -0.768010276942    0.000000000000
 H   -3.823716380194   -1.862390276942    0.000000000000
 C   -3.933896380194    2.025699723058    0.000000000000
 H   -3.952316380194    3.120059723058    0.000000000000
 C   -2.658046380194   -0.041270276942    0.000000000000
 H   -1.721816380194   -0.610690276942    0.000000000000
 C   -2.650886380194    1.398269723058    0.000000000000
 O   -1.539976380194    2.114719723058    0.000000000000
 K   -0.507416380194    0.696789723058    1.785690000000
 K   -0.507416380194    0.696789723058   -1.785690000000
 O    1.965000008652   -2.698377018086    0.000000000000
 C    3.075917828080   -1.981922102145    0.000000000000
 C    3.083069537467   -0.542379867039    0.000000000000
 H    2.146833004757    0.027039833024    0.000000000000
 C    4.288840301361    0.184365265342    0.000000000000
 H    4.248739419362    1.278750816079    0.000000000000
 C    5.531043056740   -0.464842666624    0.000000000000
 H    6.460824282158    0.108054466342    0.000000000000
 C    5.551292017195   -1.875617356644    0.000000000000
 H    6.507560312041   -2.407388755529    0.000000000000
 C    4.358915716826   -2.609341255614    0.000000000000
 H    4.377342808363   -3.703706127445    0.000000000000
