26

 C   -5.126771583298   -0.090312590185    0.000000000000
 H   -6.056541583298   -0.663202590185    0.000000000000
 C   -5.147011583298    1.320467409815    0.000000000000
 H   -6.103281583298    1.852247409815    0.000000000000
 C   -3.884561583298   -0.739522590185    0.000000000000
 H   -3.844461583298   -1.833902590185    0.000000000000
 C   -3.954641583298    2.054187409815    0.000000000000
 H   -3.973061583298    3.148547409815    0.000000000000
 C   -2.678791583298   -0.012782590185    0.000000000000
 H   -1.742561583298   -0.582202590185    0.000000000000
 C   -2.671631583298    1.426757409815    0.000000000000
 O   -1.560721583298    2.143207409815    0.000000000000
 K   -0.528161583298    0.725277409815    1.785690000000
 K   -0.528161583298    0.725277409815   -1.785690000000
 O    2.003121862424   -2.750726634690    0.000000000000
 C    3.114039681853   -2.034271718748    0.000000000000
 C    3.121191391240   -0.594729483643    0.000000000000
 H    2.184954858530   -0.025309783580    0.000000000000
 C    4.326962155133    0.132015648738    0.000000000000
 H    4.286861273135    1.226401199476    0.000000000000
 C    5.569164910513   -0.517192283228    0.000000000000
 H    6.498946135930    0.055704849739    0.000000000000
 C    5.589413870968   -1.927966973248    0.000000000000
 H    6.545682165814   -2.459738372133    0.000000000000
 C    4.397037570599   -2.661690872217    0.000000000000
 H    4.415464662136   -3.756055744048    0.000000000000
