26

 C   -5.147516786403   -0.061824903428    0.000000000000
 H   -6.077286786403   -0.634714903428    0.000000000000
 C   -5.167756786403    1.348955096572    0.000000000000
 H   -6.124026786403    1.880735096572    0.000000000000
 C   -3.905306786403   -0.711034903428    0.000000000000
 H   -3.865206786403   -1.805414903428    0.000000000000
 C   -3.975386786403    2.082675096572    0.000000000000
 H   -3.993806786403    3.177035096572    0.000000000000
 C   -2.699536786403    0.015705096572    0.000000000000
 H   -1.763306786403   -0.553714903428    0.000000000000
 C   -2.692376786403    1.455245096572    0.000000000000
 O   -1.581466786403    2.171695096572    0.000000000000
 K   -0.548906786403    0.753765096572    1.785690000000
 K   -0.548906786403    0.753765096572   -1.785690000000
 O    2.041243716197   -2.803076251293    0.000000000000
 C    3.152161535625   -2.086621335352    0.000000000000
 C    3.159313245013   -0.647079100246    0.000000000000
 H    2.223076712303   -0.077659400183    0.000000000000
 C    4.365084008906    0.079666032135    0.000000000000
 H    4.324983126907    1.174051582872    0.000000000000
 C    5.607286764286   -0.569541899831    0.000000000000
 H    6.537067989703    0.003355233135    0.000000000000
 C    5.627535724740   -1.980316589851    0.000000000000
 H    6.583804019586   -2.512087988736    0.000000000000
 C    4.435159424372   -2.714040488821    0.000000000000
 H    4.453586515908   -3.808405360652    0.000000000000
