26

 C   -5.189007192612   -0.004849529914    0.000000000000
 H   -6.118777192612   -0.577739529914    0.000000000000
 C   -5.209247192612    1.405930470086    0.000000000000
 H   -6.165517192612    1.937710470086    0.000000000000
 C   -3.946797192612   -0.654059529914    0.000000000000
 H   -3.906697192612   -1.748439529914    0.000000000000
 C   -4.016877192612    2.139650470086    0.000000000000
 H   -4.035297192612    3.234010470086    0.000000000000
 C   -2.741027192612    0.072680470086    0.000000000000
 H   -1.804797192612   -0.496739529914    0.000000000000
 C   -2.733867192612    1.512220470086    0.000000000000
 O   -1.622957192612    2.228670470086    0.000000000000
 K   -0.590397192612    0.810740470086    1.785690000000
 K   -0.590397192612    0.810740470086   -1.785690000000
 O    2.117487423743   -2.907775484500    0.000000000000
 C    3.228405243171   -2.191320568558    0.000000000000
 C    3.235556952558   -0.751778333453    0.000000000000
 H    2.299320419848   -0.182358633390    0.000000000000
 C    4.441327716452   -0.025033201072    0.000000000000
 H    4.401226834453    1.069352349666    0.000000000000
 C    5.683530471831   -0.674241133038    0.000000000000
 H    6.613311697249   -0.101344000072    0.000000000000
 C    5.703779432286   -2.085015823058    0.000000000000
 H    6.660047727132   -2.616787221943    0.000000000000
 C    4.511403131917   -2.818739722028    0.000000000000
 H    4.529830223454   -3.913104593858    0.000000000000
