26

 C   -5.209752395716    0.023638156843    0.000000000000
 H   -6.139522395716   -0.549251843157    0.000000000000
 C   -5.229992395716    1.434418156843    0.000000000000
 H   -6.186262395716    1.966198156843    0.000000000000
 C   -3.967542395716   -0.625571843157    0.000000000000
 H   -3.927442395716   -1.719951843157    0.000000000000
 C   -4.037622395716    2.168138156843    0.000000000000
 H   -4.056042395716    3.262498156843    0.000000000000
 C   -2.761772395716    0.101168156843    0.000000000000
 H   -1.825542395716   -0.468251843157    0.000000000000
 C   -2.754612395716    1.540708156843    0.000000000000
 O   -1.643702395716    2.257158156843    0.000000000000
 K   -0.611142395716    0.839228156843    1.785690000000
 K   -0.611142395716    0.839228156843   -1.785690000000
 O    2.155609277515   -2.960125101103    0.000000000000
 C    3.266527096944   -2.243670185162    0.000000000000
 C    3.273678806331   -0.804127950056    0.000000000000
 H    2.337442273621   -0.234708249993    0.000000000000
 C    4.479449570225   -0.077382817675    0.000000000000
 H    4.439348688226    1.017002733062    0.000000000000
 C    5.721652325604   -0.726590749641    0.000000000000
 H    6.651433551022   -0.153693616675    0.000000000000
 C    5.741901286059   -2.137365439661    0.000000000000
 H    6.698169580905   -2.669136838547    0.000000000000
 C    4.549524985690   -2.871089338631    0.000000000000
 H    4.567952077227   -3.965454210462    0.000000000000
