26

 C   -5.230497598821    0.052125843601    0.000000000000
 H   -6.160267598821   -0.520764156399    0.000000000000
 C   -5.250737598821    1.462905843601    0.000000000000
 H   -6.207007598821    1.994685843601    0.000000000000
 C   -3.988287598821   -0.597084156399    0.000000000000
 H   -3.948187598821   -1.691464156399    0.000000000000
 C   -4.058367598821    2.196625843601    0.000000000000
 H   -4.076787598821    3.290985843601    0.000000000000
 C   -2.782517598821    0.129655843601    0.000000000000
 H   -1.846287598821   -0.439764156399    0.000000000000
 C   -2.775357598821    1.569195843601    0.000000000000
 O   -1.664447598821    2.285645843601    0.000000000000
 K   -0.631887598821    0.867715843601    1.785690000000
 K   -0.631887598821    0.867715843601   -1.785690000000
 O    2.193731131288   -3.012474717707    0.000000000000
 C    3.304648950716   -2.296019801765    0.000000000000
 C    3.311800660104   -0.856477566660    0.000000000000
 H    2.375564127394   -0.287057866597    0.000000000000
 C    4.517571423997   -0.129732434279    0.000000000000
 H    4.477470541998    0.964653116459    0.000000000000
 C    5.759774179377   -0.778940366245    0.000000000000
 H    6.689555404794   -0.206043233279    0.000000000000
 C    5.780023139832   -2.189715056265    0.000000000000
 H    6.736291434677   -2.721486455150    0.000000000000
 C    4.587646839463   -2.923438955234    0.000000000000
 H    4.606073930999   -4.017803827065    0.000000000000
