26

 C   -5.271988005030    0.109101217115    0.000000000000
 H   -6.201758005030   -0.463788782885    0.000000000000
 C   -5.292228005030    1.519881217115    0.000000000000
 H   -6.248498005030    2.051661217115    0.000000000000
 C   -4.029778005030   -0.540108782885    0.000000000000
 H   -3.989678005030   -1.634488782885    0.000000000000
 C   -4.099858005030    2.253601217115    0.000000000000
 H   -4.118278005030    3.347961217115    0.000000000000
 C   -2.824008005030    0.186631217115    0.000000000000
 H   -1.887778005030   -0.382788782885    0.000000000000
 C   -2.816848005030    1.626171217115    0.000000000000
 O   -1.705938005030    2.342621217115    0.000000000000
 K   -0.673378005030    0.924691217115    1.785690000000
 K   -0.673378005030    0.924691217115   -1.785690000000
 O    2.269974838834   -3.117173950914    0.000000000000
 C    3.380892658262   -2.400719034972    0.000000000000
 C    3.388044367649   -0.961176799867    0.000000000000
 H    2.451807834939   -0.391757099804    0.000000000000
 C    4.593815131543   -0.234431667486    0.000000000000
 H    4.553714249544    0.859953883252    0.000000000000
 C    5.836017886922   -0.883639599452    0.000000000000
 H    6.765799112340   -0.310742466485    0.000000000000
 C    5.856266847377   -2.294414289472    0.000000000000
 H    6.812535142223   -2.826185688357    0.000000000000
 C    4.663890547009   -3.028138188441    0.000000000000
 H    4.682317638545   -4.122503060272    0.000000000000
