26

 C   -5.292733208134    0.137588903872    0.000000000000
 H   -6.222503208134   -0.435301096128    0.000000000000
 C   -5.312973208134    1.548368903872    0.000000000000
 H   -6.269243208134    2.080148903872    0.000000000000
 C   -4.050523208134   -0.511621096128    0.000000000000
 H   -4.010423208134   -1.606001096128    0.000000000000
 C   -4.120603208134    2.282088903872    0.000000000000
 H   -4.139023208134    3.376448903872    0.000000000000
 C   -2.844753208134    0.215118903872    0.000000000000
 H   -1.908523208134   -0.354301096128    0.000000000000
 C   -2.837593208134    1.654658903872    0.000000000000
 O   -1.726683208134    2.371108903872    0.000000000000
 K   -0.694123208134    0.953178903872    1.785690000000
 K   -0.694123208134    0.953178903872   -1.785690000000
 O    2.308096692606   -3.169523567517    0.000000000000
 C    3.419014512035   -2.453068651576    0.000000000000
 C    3.426166221422   -1.013526416470    0.000000000000
 H    2.489929688712   -0.444106716407    0.000000000000
 C    4.631936985316   -0.286781284089    0.000000000000
 H    4.591836103317    0.807604266648    0.000000000000
 C    5.874139740695   -0.935989216055    0.000000000000
 H    6.803920966113   -0.363092083089    0.000000000000
 C    5.894388701150   -2.346763906075    0.000000000000
 H    6.850656995996   -2.878535304960    0.000000000000
 C    4.702012400781   -3.080487805045    0.000000000000
 H    4.720439492318   -4.174852676876    0.000000000000
