26

 C   -5.334223614343    0.194564277386    0.000000000000
 H   -6.263993614343   -0.378325722614    0.000000000000
 C   -5.354463614343    1.605344277386    0.000000000000
 H   -6.310733614343    2.137124277386    0.000000000000
 C   -4.092013614343   -0.454645722614    0.000000000000
 H   -4.051913614343   -1.549025722614    0.000000000000
 C   -4.162093614343    2.339064277386    0.000000000000
 H   -4.180513614343    3.433424277386    0.000000000000
 C   -2.886243614343    0.272094277386    0.000000000000
 H   -1.950013614343   -0.297325722614    0.000000000000
 C   -2.879083614343    1.711634277386    0.000000000000
 O   -1.768173614343    2.428084277386    0.000000000000
 K   -0.735613614343    1.010154277386    1.785690000000
 K   -0.735613614343    1.010154277386   -1.785690000000
 O    2.384340400152   -3.274222800724    0.000000000000
 C    3.495258219580   -2.557767884782    0.000000000000
 C    3.502409928968   -1.118225649677    0.000000000000
 H    2.566173396258   -0.548805949614    0.000000000000
 C    4.708180692861   -0.391480517296    0.000000000000
 H    4.668079810862    0.702905033442    0.000000000000
 C    5.950383448241   -1.040688449262    0.000000000000
 H    6.880164673658   -0.467791316296    0.000000000000
 C    5.970632408695   -2.451463139282    0.000000000000
 H    6.926900703541   -2.983234538167    0.000000000000
 C    4.778256108327   -3.185187038251    0.000000000000
 H    4.796683199863   -4.279551910082    0.000000000000
