26

 C   -5.354968817448    0.223051964143    0.000000000000
 H   -6.284738817448   -0.349838035857    0.000000000000
 C   -5.375208817448    1.633831964143    0.000000000000
 H   -6.331478817448    2.165611964143    0.000000000000
 C   -4.112758817448   -0.426158035857    0.000000000000
 H   -4.072658817448   -1.520538035857    0.000000000000
 C   -4.182838817448    2.367551964143    0.000000000000
 H   -4.201258817448    3.461911964143    0.000000000000
 C   -2.906988817448    0.300581964143    0.000000000000
 H   -1.970758817448   -0.268838035857    0.000000000000
 C   -2.899828817448    1.740121964143    0.000000000000
 O   -1.788918817448    2.456571964143    0.000000000000
 K   -0.756358817448    1.038641964143    1.785690000000
 K   -0.756358817448    1.038641964143   -1.785690000000
 O    2.422462253925   -3.326572417327    0.000000000000
 C    3.533380073353   -2.610117501386    0.000000000000
 C    3.540531782740   -1.170575266280    0.000000000000
 H    2.604295250031   -0.601155566217    0.000000000000
 C    4.746302546634   -0.443830133899    0.000000000000
 H    4.706201664635    0.650555416838    0.000000000000
 C    5.988505302013   -1.093038065865    0.000000000000
 H    6.918286527431   -0.520140932899    0.000000000000
 C    6.008754262468   -2.503812755885    0.000000000000
 H    6.965022557314   -3.035584154771    0.000000000000
 C    4.816377962100   -3.237536654855    0.000000000000
 H    4.834805053636   -4.331901526686    0.000000000000
