26

 C   -5.375714020552    0.251539650901    0.000000000000
 H   -6.305484020552   -0.321350349099    0.000000000000
 C   -5.395954020552    1.662319650901    0.000000000000
 H   -6.352224020552    2.194099650901    0.000000000000
 C   -4.133504020552   -0.397670349099    0.000000000000
 H   -4.093404020552   -1.492050349099    0.000000000000
 C   -4.203584020552    2.396039650901    0.000000000000
 H   -4.222004020552    3.490399650901    0.000000000000
 C   -2.927734020552    0.329069650901    0.000000000000
 H   -1.991504020552   -0.240350349099    0.000000000000
 C   -2.920574020552    1.768609650901    0.000000000000
 O   -1.809664020552    2.485059650901    0.000000000000
 K   -0.777104020552    1.067129650901    1.785690000000
 K   -0.777104020552    1.067129650901   -1.785690000000
 O    2.460584107698   -3.378922033931    0.000000000000
 C    3.571501927126   -2.662467117989    0.000000000000
 C    3.578653636513   -1.222924882884    0.000000000000
 H    2.642417103803   -0.653505182821    0.000000000000
 C    4.784424400407   -0.496179750503    0.000000000000
 H    4.744323518408    0.598205800235    0.000000000000
 C    6.026627155786   -1.145387682469    0.000000000000
 H    6.956408381204   -0.572490549502    0.000000000000
 C    6.046876116241   -2.556162372489    0.000000000000
 H    7.003144411087   -3.087933771374    0.000000000000
 C    4.854499815872   -3.289886271458    0.000000000000
 H    4.872926907409   -4.384251143289    0.000000000000
