26

 C   -5.541675645388    0.479441144958    0.000000000000
 H   -6.471445645388   -0.093448855042    0.000000000000
 C   -5.561915645388    1.890221144958    0.000000000000
 H   -6.518185645388    2.422001144958    0.000000000000
 C   -4.299465645388   -0.169768855042    0.000000000000
 H   -4.259365645388   -1.264148855042    0.000000000000
 C   -4.369545645388    2.623941144958    0.000000000000
 H   -4.387965645388    3.718301144958    0.000000000000
 C   -3.093695645388    0.556971144958    0.000000000000
 H   -2.157465645388   -0.012448855042    0.000000000000
 C   -3.086535645388    1.996511144958    0.000000000000
 O   -1.975625645388    2.712961144958    0.000000000000
 K   -0.943065645388    1.295031144958    1.785690000000
 K   -0.943065645388    1.295031144958   -1.785690000000
 O    2.765558937880   -3.797718966758    0.000000000000
 C    3.876476757308   -3.081264050817    0.000000000000
 C    3.883628466695   -1.641721815711    0.000000000000
 H    2.947391933986   -1.072302115648    0.000000000000
 C    5.089399230589   -0.914976683330    0.000000000000
 H    5.049298348590    0.179408867407    0.000000000000
 C    6.331601985968   -1.564184615296    0.000000000000
 H    7.261383211386   -0.991287482330    0.000000000000
 C    6.351850946423   -2.974959305316    0.000000000000
 H    7.308119241269   -3.506730704201    0.000000000000
 C    5.159474646055   -3.708683204286    0.000000000000
 H    5.177901737591   -4.803048076117    0.000000000000
