26

 C   -5.645401660911    0.621879578743    0.000000000000
 H   -6.575171660911    0.048989578743    0.000000000000
 C   -5.665641660911    2.032659578743    0.000000000000
 H   -6.621911660911    2.564439578743    0.000000000000
 C   -4.403191660911   -0.027330421257    0.000000000000
 H   -4.363091660911   -1.121710421257    0.000000000000
 C   -4.473271660911    2.766379578743    0.000000000000
 H   -4.491691660911    3.860739578743    0.000000000000
 C   -3.197421660911    0.699409578743    0.000000000000
 H   -2.261191660911    0.129989578743    0.000000000000
 C   -3.190261660911    2.138949578743    0.000000000000
 O   -2.079351660911    2.855399578743    0.000000000000
 K   -1.046791660911    1.437469578743    1.785690000000
 K   -1.046791660911    1.437469578743   -1.785690000000
 O    2.956168206744   -4.059467049775    0.000000000000
 C    4.067086026172   -3.343012133834    0.000000000000
 C    4.074237735559   -1.903469898728    0.000000000000
 H    3.138001202849   -1.334050198665    0.000000000000
 C    5.280008499453   -1.176724766347    0.000000000000
 H    5.239907617454   -0.082339215610    0.000000000000
 C    6.522211254832   -1.825932698313    0.000000000000
 H    7.451992480250   -1.253035565347    0.000000000000
 C    6.542460215287   -3.236707388333    0.000000000000
 H    7.498728510133   -3.768478787219    0.000000000000
 C    5.350083914918   -3.970431287303    0.000000000000
 H    5.368511006455   -5.064796159134    0.000000000000
