26

 C   -5.666146864015    0.650367265501    0.000000000000
 H   -6.595916864015    0.077477265501    0.000000000000
 C   -5.686386864015    2.061147265501    0.000000000000
 H   -6.642656864015    2.592927265501    0.000000000000
 C   -4.423936864015    0.001157265501    0.000000000000
 H   -4.383836864015   -1.093222734499    0.000000000000
 C   -4.494016864015    2.794867265501    0.000000000000
 H   -4.512436864015    3.889227265501    0.000000000000
 C   -3.218166864015    0.727897265501    0.000000000000
 H   -2.281936864015    0.158477265501    0.000000000000
 C   -3.211006864015    2.167437265501    0.000000000000
 O   -2.100096864015    2.883887265501    0.000000000000
 K   -1.067536864015    1.465957265501    1.785690000000
 K   -1.067536864015    1.465957265501   -1.785690000000
 O    2.994290060516   -4.111816666379    0.000000000000
 C    4.105207879945   -3.395361750437    0.000000000000
 C    4.112359589332   -1.955819515332    0.000000000000
 H    3.176123056622   -1.386399815269    0.000000000000
 C    5.318130353226   -1.229074382951    0.000000000000
 H    5.278029471227   -0.134688832213    0.000000000000
 C    6.560333108605   -1.878282314917    0.000000000000
 H    7.490114334023   -1.305385181950    0.000000000000
 C    6.580582069060   -3.289057004937    0.000000000000
 H    7.536850363906   -3.820828403822    0.000000000000
 C    5.388205768691   -4.022780903906    0.000000000000
 H    5.406632860228   -5.117145775737    0.000000000000
