26

 C   -5.707637270224    0.707342639015    0.000000000000
 H   -6.637407270224    0.134452639015    0.000000000000
 C   -5.727877270224    2.118122639015    0.000000000000
 H   -6.684147270224    2.649902639015    0.000000000000
 C   -4.465427270224    0.058132639015    0.000000000000
 H   -4.425327270224   -1.036247360985    0.000000000000
 C   -4.535507270224    2.851842639015    0.000000000000
 H   -4.553927270224    3.946202639015    0.000000000000
 C   -3.259657270224    0.784872639015    0.000000000000
 H   -2.323427270224    0.215452639015    0.000000000000
 C   -3.252497270224    2.224412639015    0.000000000000
 O   -2.141587270224    2.940862639015    0.000000000000
 K   -1.109027270224    1.522932639015    1.785690000000
 K   -1.109027270224    1.522932639015   -1.785690000000
 O    3.070533768062   -4.216515899585    0.000000000000
 C    4.181451587490   -3.500060983644    0.000000000000
 C    4.188603296877   -2.060518748538    0.000000000000
 H    3.252366764168   -1.491099048476    0.000000000000
 C    5.394374060771   -1.333773616158    0.000000000000
 H    5.354273178772   -0.239388065420    0.000000000000
 C    6.636576816151   -1.982981548124    0.000000000000
 H    7.566358041568   -1.410084415157    0.000000000000
 C    6.656825776605   -3.393756238143    0.000000000000
 H    7.613094071451   -3.925527637029    0.000000000000
 C    5.464449476237   -4.127480137113    0.000000000000
 H    5.482876567773   -5.221845008944    0.000000000000
