26

 C   -5.832108488851    0.878268759558    0.000000000000
 H   -6.761878488851    0.305378759558    0.000000000000
 C   -5.852348488851    2.289048759558    0.000000000000
 H   -6.808618488851    2.820828759558    0.000000000000
 C   -4.589898488851    0.229058759558    0.000000000000
 H   -4.549798488851   -0.865321240442    0.000000000000
 C   -4.659978488851    3.022768759558    0.000000000000
 H   -4.678398488851    4.117128759558    0.000000000000
 C   -3.384128488851    0.955798759558    0.000000000000
 H   -2.447898488851    0.386378759558    0.000000000000
 C   -3.376968488851    2.395338759558    0.000000000000
 O   -2.266058488851    3.111788759558    0.000000000000
 K   -1.233498488851    1.693858759558    1.785690000000
 K   -1.233498488851    1.693858759558   -1.785690000000
 O    3.299264890699   -4.530613599206    0.000000000000
 C    4.410182710127   -3.814158683265    0.000000000000
 C    4.417334419514   -2.374616448159    0.000000000000
 H    3.481097886804   -1.805196748096    0.000000000000
 C    5.623105183408   -1.647871315778    0.000000000000
 H    5.583004301409   -0.553485765041    0.000000000000
 C    6.865307938787   -2.297079247744    0.000000000000
 H    7.795089164205   -1.724182114778    0.000000000000
 C    6.885556899242   -3.707853937764    0.000000000000
 H    7.841825194088   -4.239625336649    0.000000000000
 C    5.693180598873   -4.441577836734    0.000000000000
 H    5.711607690410   -5.535942708565    0.000000000000
