26

 C   -5.977324910583    1.077682566858    0.000000000000
 H   -6.907094910583    0.504792566858    0.000000000000
 C   -5.997564910583    2.488462566858    0.000000000000
 H   -6.953834910583    3.020242566858    0.000000000000
 C   -4.735114910583    0.428472566858    0.000000000000
 H   -4.695014910583   -0.665907433142    0.000000000000
 C   -4.805194910583    3.222182566858    0.000000000000
 H   -4.823614910583    4.316542566858    0.000000000000
 C   -3.529344910583    1.155212566858    0.000000000000
 H   -2.593114910583    0.585792566858    0.000000000000
 C   -3.522184910583    2.594752566858    0.000000000000
 O   -2.411274910583    3.311202566858    0.000000000000
 K   -1.378714910583    1.893272566858    1.785690000000
 K   -1.378714910583    1.893272566858   -1.785690000000
 O    3.566117867108   -4.897060915430    0.000000000000
 C    4.677035686536   -4.180605999489    0.000000000000
 C    4.684187395924   -2.741063764383    0.000000000000
 H    3.747950863214   -2.171644064320    0.000000000000
 C    5.889958159817   -2.014318632002    0.000000000000
 H    5.849857277818   -0.919933081265    0.000000000000
 C    7.132160915197   -2.663526563968    0.000000000000
 H    8.061942140614   -2.090629431002    0.000000000000
 C    7.152409875651   -4.074301253988    0.000000000000
 H    8.108678170497   -4.606072652873    0.000000000000
 C    5.960033575283   -4.808025152958    0.000000000000
 H    5.978460666819   -5.902390024789    0.000000000000
