26

 C   -6.060305723001    1.191633313886    0.000000000000
 H   -6.990075723001    0.618743313886    0.000000000000
 C   -6.080545723001    2.602413313886    0.000000000000
 H   -7.036815723001    3.134193313886    0.000000000000
 C   -4.818095723001    0.542423313886    0.000000000000
 H   -4.777995723001   -0.551956686114    0.000000000000
 C   -4.888175723001    3.336133313886    0.000000000000
 H   -4.906595723001    4.430493313886    0.000000000000
 C   -3.612325723001    1.269163313886    0.000000000000
 H   -2.676095723001    0.699743313886    0.000000000000
 C   -3.605165723001    2.708703313886    0.000000000000
 O   -2.494255723001    3.425153313886    0.000000000000
 K   -1.461695723001    2.007223313886    1.785690000000
 K   -1.461695723001    2.007223313886   -1.785690000000
 O    3.718605282199   -5.106459381844    0.000000000000
 C    4.829523101628   -4.390004465902    0.000000000000
 C    4.836674811015   -2.950462230797    0.000000000000
 H    3.900438278305   -2.381042530734    0.000000000000
 C    6.042445574908   -2.223717098416    0.000000000000
 H    6.002344692909   -1.129331547678    0.000000000000
 C    7.284648330288   -2.872925030382    0.000000000000
 H    8.214429555705   -2.300027897415    0.000000000000
 C    7.304897290743   -4.283699720402    0.000000000000
 H    8.261165585588   -4.815471119287    0.000000000000
 C    6.112520990374   -5.017423619371    0.000000000000
 H    6.130948081910   -6.111788491202    0.000000000000
