26

 C   -6.101796129210    1.248608687401    0.000000000000
 H   -7.031566129210    0.675718687401    0.000000000000
 C   -6.122036129210    2.659388687401    0.000000000000
 H   -7.078306129210    3.191168687401    0.000000000000
 C   -4.859586129210    0.599398687401    0.000000000000
 H   -4.819486129210   -0.494981312599    0.000000000000
 C   -4.929666129210    3.393108687401    0.000000000000
 H   -4.948086129210    4.487468687401    0.000000000000
 C   -3.653816129210    1.326138687401    0.000000000000
 H   -2.717586129210    0.756718687401    0.000000000000
 C   -3.646656129210    2.765678687401    0.000000000000
 O   -2.535746129210    3.482128687401    0.000000000000
 K   -1.503186129210    2.064198687401    1.785690000000
 K   -1.503186129210    2.064198687401   -1.785690000000
 O    3.794848989745   -5.211158615050    0.000000000000
 C    4.905766809173   -4.494703699109    0.000000000000
 C    4.912918518560   -3.055161464003    0.000000000000
 H    3.976681985851   -2.485741763941    0.000000000000
 C    6.118689282454   -2.328416331623    0.000000000000
 H    6.078588400455   -1.234030780885    0.000000000000
 C    7.360892037833   -2.977624263589    0.000000000000
 H    8.290673263251   -2.404727130622    0.000000000000
 C    7.381140998288   -4.388398953608    0.000000000000
 H    8.337409293134   -4.920170352494    0.000000000000
 C    6.188764697920   -5.122122852578    0.000000000000
 H    6.207191789456   -6.216487724409    0.000000000000
