26

 C   -6.164031738523    1.334071747672    0.000000000000
 H   -7.093801738523    0.761181747672    0.000000000000
 C   -6.184271738523    2.744851747672    0.000000000000
 H   -7.140541738523    3.276631747672    0.000000000000
 C   -4.921821738523    0.684861747672    0.000000000000
 H   -4.881721738523   -0.409518252328    0.000000000000
 C   -4.991901738523    3.478571747672    0.000000000000
 H   -5.010321738523    4.572931747672    0.000000000000
 C   -3.716051738523    1.411601747672    0.000000000000
 H   -2.779821738523    0.842181747672    0.000000000000
 C   -3.708891738523    2.851141747672    0.000000000000
 O   -2.597981738523    3.567591747672    0.000000000000
 K   -1.565421738523    2.149661747672    1.785690000000
 K   -1.565421738523    2.149661747672   -1.785690000000
 O    3.909214551063   -5.368207464861    0.000000000000
 C    5.020132370491   -4.651752548919    0.000000000000
 C    5.027284079879   -3.212210313814    0.000000000000
 H    4.091047547169   -2.642790613751    0.000000000000
 C    6.233054843772   -2.485465181433    0.000000000000
 H    6.192953961773   -1.391079630695    0.000000000000
 C    7.475257599152   -3.134673113399    0.000000000000
 H    8.405038824569   -2.561775980433    0.000000000000
 C    7.495506559606   -4.545447803419    0.000000000000
 H    8.451774854452   -5.077219202304    0.000000000000
 C    6.303130259238   -5.279171702388    0.000000000000
 H    6.321557350774   -6.373536574219    0.000000000000
