26

 C   -6.205522144732    1.391047121186    0.000000000000
 H   -7.135292144732    0.818157121186    0.000000000000
 C   -6.225762144732    2.801827121186    0.000000000000
 H   -7.182032144732    3.333607121186    0.000000000000
 C   -4.963312144732    0.741837121186    0.000000000000
 H   -4.923212144732   -0.352542878814    0.000000000000
 C   -5.033392144732    3.535547121186    0.000000000000
 H   -5.051812144732    4.629907121186    0.000000000000
 C   -3.757542144732    1.468577121186    0.000000000000
 H   -2.821312144732    0.899157121186    0.000000000000
 C   -3.750382144732    2.908117121186    0.000000000000
 O   -2.639472144732    3.624567121186    0.000000000000
 K   -1.606912144732    2.206637121186    1.785690000000
 K   -1.606912144732    2.206637121186   -1.785690000000
 O    3.985458258609   -5.472906698068    0.000000000000
 C    5.096376078037   -4.756451782126    0.000000000000
 C    5.103527787424   -3.316909547021    0.000000000000
 H    4.167291254714   -2.747489846958    0.000000000000
 C    6.309298551318   -2.590164414640    0.000000000000
 H    6.269197669319   -1.495778863902    0.000000000000
 C    7.551501306697   -3.239372346606    0.000000000000
 H    8.481282532115   -2.666475213639    0.000000000000
 C    7.571750267152   -4.650147036626    0.000000000000
 H    8.528018561998   -5.181918435511    0.000000000000
 C    6.379373966783   -5.383870935595    0.000000000000
 H    6.397801058320   -6.478235807426    0.000000000000
