26

 C   -6.288502957150    1.504997868215    0.000000000000
 H   -7.218272957150    0.932107868215    0.000000000000
 C   -6.308742957150    2.915777868215    0.000000000000
 H   -7.265012957150    3.447557868215    0.000000000000
 C   -5.046292957150    0.855787868215    0.000000000000
 H   -5.006192957150   -0.238592131785    0.000000000000
 C   -5.116372957150    3.649497868215    0.000000000000
 H   -5.134792957150    4.743857868215    0.000000000000
 C   -3.840522957150    1.582527868215    0.000000000000
 H   -2.904292957150    1.013107868215    0.000000000000
 C   -3.833362957150    3.022067868215    0.000000000000
 O   -2.722452957150    3.738517868215    0.000000000000
 K   -1.689892957150    2.320587868215    1.785690000000
 K   -1.689892957150    2.320587868215   -1.785690000000
 O    4.137945673700   -5.682305164481    0.000000000000
 C    5.248863493128   -4.965850248540    0.000000000000
 C    5.256015202515   -3.526308013434    0.000000000000
 H    4.319778669805   -2.956888313371    0.000000000000
 C    6.461785966409   -2.799562881053    0.000000000000
 H    6.421685084410   -1.705177330316    0.000000000000
 C    7.703988721788   -3.448770813019    0.000000000000
 H    8.633769947206   -2.875873680053    0.000000000000
 C    7.724237682243   -4.859545503039    0.000000000000
 H    8.680505977089   -5.391316901925    0.000000000000
 C    6.531861381875   -5.593269402009    0.000000000000
 H    6.550288473411   -6.687634273840    0.000000000000
