17

 N   -1.774630390101   -1.692898311742   -0.002941250362
 C   -0.564442323257   -1.037692108066    0.001020373606
 N    0.668970091046   -1.636369802528    0.013058658511
 C    1.639393291102   -0.746193660917    0.001186201538
 N    1.436316453689    0.615444472597   -0.005648958804
 H    2.240143578940    1.235405012352   -0.087636981226
 N    2.964848045339   -1.164868382597   -0.077161101697
 H    3.619384250671   -0.633065158197    0.490479675033
 H    3.043653132730   -2.165568526532    0.084422236292
 C    0.177042711372    1.301478176128    0.007304827873
 O    0.149462342267    2.529651260905    0.003216699445
 C   -0.895742414604    0.327784786854    0.013506025813
 N   -2.266815716373    0.514115832167    0.013430841097
 C   -2.760339210884   -0.724487181878    0.003100741432
 H   -3.817837124152   -0.978633803710    0.000154097006
 H   -1.899727386632   -2.699481396974   -0.011600801393
LI    1.260414574404    3.204749126994   -0.002075664058
