17

 N   -1.778423583408   -1.695203340377   -0.002923180316
 C   -0.568235516564   -1.039997136701    0.001038443652
 N    0.665176897739   -1.638674831163    0.013076728557
 C    1.635600097795   -0.748498689552    0.001204271584
 N    1.432523260382    0.613139443962   -0.005630888758
 H    2.236350385633    1.233099983717   -0.087618911180
 N    2.961054852032   -1.167173411232   -0.077143031651
 H    3.615591057364   -0.635370186832    0.490497745079
 H    3.039859939423   -2.167873555167    0.084440306338
 C    0.173249518065    1.299173147493    0.007322897919
 O    0.145669148960    2.527346232270    0.003234769491
 C   -0.899535607911    0.325479758219    0.013524095859
 N   -2.270608909680    0.511810803532    0.013448911143
 C   -2.764132404191   -0.726792210513    0.003118811478
 H   -3.821630317459   -0.980938832345    0.000172167052
 H   -1.903520579939   -2.701786425609   -0.011582731347
LI    1.342079245108    3.254374703442   -0.002464698897
