17

 N   -1.782216776715   -1.697508369012   -0.002905110270
 C   -0.572028709871   -1.042302165336    0.001056513698
 N    0.661383704432   -1.640979859798    0.013094798603
 C    1.631806904488   -0.750803718187    0.001222341630
 N    1.428730067075    0.610834415327   -0.005612818712
 H    2.232557192326    1.230794955082   -0.087600841134
 N    2.957261658725   -1.169478439867   -0.077124961605
 H    3.611797864057   -0.637675215467    0.490515815125
 H    3.036066746116   -2.170178583802    0.084458376384
 C    0.169456324758    1.296868118858    0.007340967965
 O    0.141875955653    2.525041203635    0.003252839537
 C   -0.903328801218    0.323174729584    0.013542165905
 N   -2.274402102987    0.509505774897    0.013466981189
 C   -2.767925597498   -0.729097239148    0.003136881524
 H   -3.825423510766   -0.983243860980    0.000190237098
 H   -1.907313773246   -2.704091454244   -0.011564661301
LI    1.423743915811    3.304000279891   -0.002853733736
