17

 N   -1.786009970022   -1.699813397647   -0.002887040224
 C   -0.575821903178   -1.044607193971    0.001074583744
 N    0.657590511125   -1.643284888433    0.013112868649
 C    1.628013711181   -0.753108746822    0.001240411676
 N    1.424936873768    0.608529386692   -0.005594748666
 H    2.228763999019    1.228489926447   -0.087582771088
 N    2.953468465418   -1.171783468502   -0.077106891559
 H    3.608004670750   -0.639980244102    0.490533885171
 H    3.032273552809   -2.172483612437    0.084476446430
 C    0.165663131451    1.294563090223    0.007359038011
 O    0.138082762346    2.522736175000    0.003270909583
 C   -0.907121994525    0.320869700949    0.013560235951
 N   -2.278195296294    0.507200746262    0.013485051235
 C   -2.771718790805   -0.731402267783    0.003154951570
 H   -3.829216704073   -0.985548889615    0.000208307144
 H   -1.911106966553   -2.706396482879   -0.011546591255
LI    1.505408586515    3.353625856340   -0.003242768575
