17

 N   -1.789803163330   -1.702118426282   -0.002868970178
 C   -0.579615096486   -1.046912222606    0.001092653790
 N    0.653797317817   -1.645589917068    0.013130938695
 C    1.624220517873   -0.755413775457    0.001258481722
 N    1.421143680460    0.606224358057   -0.005576678620
 H    2.224970805711    1.226184897812   -0.087564701042
 N    2.949675272110   -1.174088497137   -0.077088821513
 H    3.604211477442   -0.642285272737    0.490551955217
 H    3.028480359501   -2.174788641072    0.084494516476
 C    0.161869938143    1.292258061588    0.007377108057
 O    0.134289569038    2.520431146365    0.003288979629
 C   -0.910915187833    0.318564672314    0.013578305997
 N   -2.281988489602    0.504895717627    0.013503121281
 C   -2.775511984113   -0.733707296418    0.003173021616
 H   -3.833009897381   -0.987853918250    0.000226377190
 H   -1.914900159861   -2.708701511514   -0.011528521209
LI    1.587073257218    3.403251432788   -0.003631803414
