17

 N   -1.793596356637   -1.704423454917   -0.002850900132
 C   -0.583408289793   -1.049217251241    0.001110723836
 N    0.650004124510   -1.647894945703    0.013149008741
 C    1.620427324566   -0.757718804092    0.001276551768
 N    1.417350487153    0.603919329422   -0.005558608574
 H    2.221177612404    1.223879869177   -0.087546630996
 N    2.945882078803   -1.176393525772   -0.077070751467
 H    3.600418284135   -0.644590301372    0.490570025263
 H    3.024687166194   -2.177093669707    0.084512586522
 C    0.158076744836    1.289953032953    0.007395178103
 O    0.130496375731    2.518126117730    0.003307049675
 C   -0.914708381140    0.316259643679    0.013596376043
 N   -2.285781682909    0.502590688992    0.013521191327
 C   -2.779305177420   -0.736012325053    0.003191091662
 H   -3.836803090688   -0.990158946885    0.000244447236
 H   -1.918693353168   -2.711006540149   -0.011510451163
LI    1.668737927922    3.452877009237   -0.004020838253
