17

 N   -1.797389549944   -1.706728483552   -0.002832830087
 C   -0.587201483100   -1.051522279876    0.001128793881
 N    0.646210931203   -1.650199974338    0.013167078786
 C    1.616634131259   -0.760023832727    0.001294621813
 N    1.413557293846    0.601614300787   -0.005540538529
 H    2.217384419097    1.221574840542   -0.087528560951
 N    2.942088885496   -1.178698554407   -0.077052681422
 H    3.596625090828   -0.646895330007    0.490588095308
 H    3.020893972887   -2.179398698342    0.084530656567
 C    0.154283551529    1.287648004318    0.007413248148
 O    0.126703182424    2.515821089095    0.003325119720
 C   -0.918501574447    0.313954615044    0.013614446088
 N   -2.289574876216    0.500285660357    0.013539261372
 C   -2.783098370727   -0.738317353688    0.003209161707
 H   -3.840596283995   -0.992463975520    0.000262517281
 H   -1.922486546475   -2.713311568784   -0.011492381118
LI    1.750402598625    3.502502585686   -0.004409873092
