17

 N   -1.804975936558   -1.711338540823   -0.002796689995
 C   -0.594787869714   -1.056132337147    0.001164933973
 N    0.638624544589   -1.654810031609    0.013203218878
 C    1.609047744645   -0.764633889998    0.001330761905
 N    1.405970907232    0.597004243516   -0.005504398437
 H    2.209798032483    1.216964783271   -0.087492420859
 N    2.934502498882   -1.183308611678   -0.077016541330
 H    3.589038704214   -0.651505387278    0.490624235400
 H    3.013307586273   -2.184008755613    0.084566796659
 C    0.146697164915    1.283037947047    0.007449388240
 O    0.119116795810    2.511211031824    0.003361259812
 C   -0.926087961061    0.309344557773    0.013650586180
 N   -2.297161262830    0.495675603086    0.013575401464
 C   -2.790684757341   -0.742927410959    0.003245301799
 H   -3.848182670609   -0.997074032791    0.000298657373
 H   -1.930072933089   -2.717921626055   -0.011456241026
LI    1.913731940032    3.601753738583   -0.005187942770
