17

 N   -1.816355516479   -1.718253626728   -0.002742479857
 C   -0.606167449635   -1.063047423052    0.001219144111
 N    0.627244964668   -1.661725117514    0.013257429016
 C    1.597668164724   -0.771548975903    0.001384972043
 N    1.394591327311    0.590089157611   -0.005450188299
 H    2.198418452562    1.210049697366   -0.087438210721
 N    2.923122918961   -1.190223697583   -0.076962331192
 H    3.577659124293   -0.658420473183    0.490678445538
 H    3.001928006352   -2.190923841518    0.084621006797
 C    0.135317584994    1.276122861142    0.007503598378
 O    0.107737215889    2.504295945919    0.003415469950
 C   -0.937467540982    0.302429471868    0.013704796318
 N   -2.308540842751    0.488760517181    0.013629611602
 C   -2.802064337262   -0.749842496864    0.003299511937
 H   -3.859562250530   -1.003989118696    0.000352867511
 H   -1.941452513010   -2.724836711960   -0.011402030888
LI    2.158725952143    3.750630467929   -0.006355047287
