17

 N   -1.823941903093   -1.722863683998   -0.002706339765
 C   -0.613753836249   -1.067657480322    0.001255284203
 N    0.619658578054   -1.666335174784    0.013293569108
 C    1.590081778110   -0.776159033173    0.001421112135
 N    1.387004940697    0.585479100341   -0.005414048207
 H    2.190832065948    1.205439640096   -0.087402070629
 N    2.915536532347   -1.194833754853   -0.076926191100
 H    3.570072737679   -0.663030530453    0.490714585630
 H    2.994341619738   -2.195533898788    0.084657146889
 C    0.127731198380    1.271512803872    0.007539738470
 O    0.100150829275    2.499685888649    0.003451610042
 C   -0.945053927596    0.297819414598    0.013740936410
 N   -2.316127229365    0.484150459911    0.013665751694
 C   -2.809650723876   -0.754452554134    0.003335652029
 H   -3.867148637144   -1.008599175966    0.000389007603
 H   -1.949038899624   -2.729446769230   -0.011365890796
LI    2.322055293550    3.849881620826   -0.007133116965
