17

 N   -1.827735096400   -1.725168712633   -0.002688269719
 C   -0.617547029556   -1.069962508957    0.001273354249
 N    0.615865384747   -1.668640203419    0.013311639154
 C    1.586288584803   -0.778464061808    0.001439182181
 N    1.383211747390    0.583174071706   -0.005395978161
 H    2.187038872641    1.203134611461   -0.087384000583
 N    2.911743339040   -1.197138783488   -0.076908121054
 H    3.566279544372   -0.665335559088    0.490732655676
 H    2.990548426431   -2.197838927423    0.084675216935
 C    0.123938005073    1.269207775237    0.007557808516
 O    0.096357635968    2.497380860014    0.003469680088
 C   -0.948847120903    0.295514385963    0.013759006456
 N   -2.319920422672    0.481845431276    0.013683821740
 C   -2.813443917183   -0.756757582769    0.003353722075
 H   -3.870941830451   -1.010904204601    0.000407077649
 H   -1.952832092931   -2.731751797865   -0.011347820750
LI    2.403719964253    3.899507197275   -0.007522151804
