17

 N   -1.835321483015   -1.729778769903   -0.002652129628
 C   -0.625133416171   -1.074572566227    0.001309494340
 N    0.608278998132   -1.673250260689    0.013347779245
 C    1.578702198188   -0.783074119078    0.001475322272
 N    1.375625360775    0.578564014436   -0.005359838070
 H    2.179452486026    1.198524554191   -0.087347860492
 N    2.904156952425   -1.201748840758   -0.076871980963
 H    3.558693157757   -0.669945616358    0.490768795767
 H    2.982962039816   -2.202448984693    0.084711357026
 C    0.116351618458    1.264597717967    0.007593948607
 O    0.088771249353    2.492770802744    0.003505820179
 C   -0.956433507518    0.290904328693    0.013795146547
 N   -2.327506809287    0.477235374006    0.013719961831
 C   -2.821030303798   -0.761367640039    0.003389862166
 H   -3.878528217066   -1.015514261871    0.000443217740
 H   -1.960418479546   -2.736361855135   -0.011311680659
LI    2.567049305660    3.998758350172   -0.008300221482
