17

 N   -1.839114676322   -1.732083798538   -0.002634059582
 C   -0.628926609478   -1.076877594862    0.001327564386
 N    0.604485804825   -1.675555289324    0.013365849291
 C    1.574909004881   -0.785379147713    0.001493392318
 N    1.371832167468    0.576258985801   -0.005341768024
 H    2.175659292719    1.196219525556   -0.087329790446
 N    2.900363759118   -1.204053869393   -0.076853910917
 H    3.554899964450   -0.672250644993    0.490786865813
 H    2.979168846509   -2.204754013328    0.084729427072
 C    0.112558425151    1.262292689332    0.007612018653
 O    0.084978056046    2.490465774109    0.003523890225
 C   -0.960226700825    0.288599300058    0.013813216593
 N   -2.331300002594    0.474930345371    0.013738031877
 C   -2.824823497105   -0.763672668674    0.003407932212
 H   -3.882321410373   -1.017819290506    0.000461287786
 H   -1.964211672853   -2.738666883770   -0.011293610613
LI    2.648713976364    4.048383926621   -0.008689256321
