17

 N   -1.842907869629   -1.734388827173   -0.002615989536
 C   -0.632719802785   -1.079182623497    0.001345634432
 N    0.600692611518   -1.677860317959    0.013383919337
 C    1.571115811574   -0.787684176348    0.001511462364
 N    1.368038974161    0.573953957166   -0.005323697978
 H    2.171866099412    1.193914496921   -0.087311720400
 N    2.896570565811   -1.206358898028   -0.076835840871
 H    3.551106771143   -0.674555673628    0.490804935859
 H    2.975375653202   -2.207059041963    0.084747497118
 C    0.108765231844    1.259987660697    0.007630088699
 O    0.081184862739    2.488160745474    0.003541960271
 C   -0.964019894132    0.286294271423    0.013831286639
 N   -2.335093195901    0.472625316736    0.013756101923
 C   -2.828616690412   -0.765977697309    0.003426002258
 H   -3.886114603680   -1.020124319141    0.000479357832
 H   -1.968004866160   -2.740971912405   -0.011275540567
LI    2.730378647067    4.098009503069   -0.009078291160
