17

 N   -1.850494256243   -1.738998884443   -0.002579849444
 C   -0.640306189399   -1.083792680767    0.001381774524
 N    0.593106224904   -1.682470375229    0.013420059429
 C    1.563529424960   -0.792294233618    0.001547602456
 N    1.360452587547    0.569343899896   -0.005287557886
 H    2.164279712798    1.189304439651   -0.087275580308
 N    2.888984179197   -1.210968955298   -0.076799700779
 H    3.543520384529   -0.679165730898    0.490841075951
 H    2.967789266588   -2.211669099233    0.084783637210
 C    0.101178845230    1.255377603427    0.007666228791
 O    0.073598476125    2.483550688204    0.003578100363
 C   -0.971606280746    0.281684214153    0.013867426731
 N   -2.342679582515    0.468015259466    0.013792242015
 C   -2.836203077026   -0.770587754579    0.003462142350
 H   -3.893700990294   -1.024734376411    0.000515497924
 H   -1.975591252774   -2.745581969675   -0.011239400475
LI    2.893707988474    4.197260655967   -0.009856360838
