17

 N   -1.854287449550   -1.741303913079   -0.002561779398
 C   -0.644099382706   -1.086097709403    0.001399844570
 N    0.589313031597   -1.684775403865    0.013438129475
 C    1.559736231653   -0.794599262254    0.001565672502
 N    1.356659394240    0.567038871260   -0.005269487840
 H    2.160486519491    1.186999411015   -0.087257510262
 N    2.885190985890   -1.213273983934   -0.076781630733
 H    3.539727191222   -0.681470759534    0.490859145997
 H    2.963996073281   -2.213974127869    0.084801707256
 C    0.097385651923    1.253072574791    0.007684298837
 O    0.069805282818    2.481245659568    0.003596170409
 C   -0.975399474053    0.279379185517    0.013885496777
 N   -2.346472775822    0.465710230830    0.013810312061
 C   -2.839996270333   -0.772892783215    0.003480212396
 H   -3.897494183601   -1.027039405047    0.000533567970
 H   -1.979384446081   -2.747886998311   -0.011221330429
LI    2.975372659177    4.246886232415   -0.010245395677
