17

 N   -1.865667029471   -1.748218998984   -0.002507569260
 C   -0.655478962627   -1.093012795308    0.001454054708
 N    0.577933451676   -1.691690489770    0.013492339613
 C    1.548356651732   -0.801514348159    0.001619882640
 N    1.345279814319    0.560123785355   -0.005215277702
 H    2.149106939570    1.180084325110   -0.087203300124
 N    2.873811405969   -1.220189069839   -0.076727420595
 H    3.528347611301   -0.688385845439    0.490913356135
 H    2.952616493360   -2.220889213774    0.084855917394
 C    0.086006072002    1.246157488886    0.007738508975
 O    0.058425702897    2.474330573663    0.003650380547
 C   -0.986779053974    0.272464099612    0.013939706915
 N   -2.357852355743    0.458795144925    0.013864522199
 C   -2.851375850254   -0.779807869120    0.003534422534
 H   -3.908873763522   -1.033954490952    0.000587778108
 H   -1.990764026002   -2.754802084216   -0.011167120291
LI    3.220366671288    4.395762961761   -0.011412500194
