17

 N   -1.873253416086   -1.752829056254   -0.002471429169
 C   -0.663065349242   -1.097622852578    0.001490194799
 N    0.570347065061   -1.696300547040    0.013528479704
 C    1.540770265117   -0.806124405429    0.001656022731
 N    1.337693427704    0.555513728085   -0.005179137611
 H    2.141520552955    1.175474267840   -0.087167160033
 N    2.866225019354   -1.224799127109   -0.076691280504
 H    3.520761224686   -0.692995902709    0.490949496226
 H    2.945030106745   -2.225499271044    0.084892057485
 C    0.078419685387    1.241547431616    0.007774649066
 O    0.050839316282    2.469720516393    0.003686520638
 C   -0.994365440589    0.267854042342    0.013975847006
 N   -2.365438742358    0.454185087655    0.013900662290
 C   -2.858962236869   -0.784417926390    0.003570562625
 H   -3.916460150137   -1.038564548222    0.000623918199
 H   -1.998350412617   -2.759412141486   -0.011130980200
LI    3.383696012695    4.495014114659   -0.012190569872
