17

 N   -1.877046609393   -1.755134084889   -0.002453359123
 C   -0.666858542549   -1.099927881213    0.001508264845
 N    0.566553871754   -1.698605575675    0.013546549750
 C    1.536977071810   -0.808429434064    0.001674092777
 N    1.333900234397    0.553208699450   -0.005161067565
 H    2.137727359648    1.173169239205   -0.087149089987
 N    2.862431826047   -1.227104155744   -0.076673210458
 H    3.516968031379   -0.695300931344    0.490967566272
 H    2.941236913438   -2.227804299679    0.084910127531
 C    0.074626492080    1.239242402981    0.007792719112
 O    0.047046122975    2.467415487758    0.003704590684
 C   -0.998158633896    0.265549013707    0.013993917052
 N   -2.369231935665    0.451880059020    0.013918732336
 C   -2.862755430176   -0.786722955025    0.003588632671
 H   -3.920253343444   -1.040869576857    0.000641988245
 H   -2.002143605924   -2.761717170121   -0.011112910154
LI    3.465360683398    4.544639691107   -0.012579604711
