17

 N   -1.880839802700   -1.757439113524   -0.002435289077
 C   -0.670651735856   -1.102232909848    0.001526334891
 N    0.562760678447   -1.700910604310    0.013564619796
 C    1.533183878503   -0.810734462699    0.001692162823
 N    1.330107041090    0.550903670815   -0.005142997519
 H    2.133934166341    1.170864210570   -0.087131019941
 N    2.858638632740   -1.229409184379   -0.076655140412
 H    3.513174838072   -0.697605959979    0.490985636318
 H    2.937443720131   -2.230109328314    0.084928197577
 C    0.070833298773    1.236937374346    0.007810789158
 O    0.043252929668    2.465110459123    0.003722660730
 C   -1.001951827203    0.263243985072    0.014011987098
 N   -2.373025128972    0.449575030385    0.013936802382
 C   -2.866548623483   -0.789027983660    0.003606702717
 H   -3.924046536751   -1.043174605492    0.000660058291
 H   -2.005936799231   -2.764022198756   -0.011094840108
LI    3.547025354102    4.594265267556   -0.012968639550
