17

 N   -1.884632996007   -1.759744142159   -0.002417219031
 C   -0.674444929163   -1.104537938483    0.001544404937
 N    0.558967485140   -1.703215632945    0.013582689842
 C    1.529390685196   -0.813039491334    0.001710232869
 N    1.326313847783    0.548598642180   -0.005124927473
 H    2.130140973034    1.168559181935   -0.087112949895
 N    2.854845439433   -1.231714213014   -0.076637070366
 H    3.509381644765   -0.699910988614    0.491003706364
 H    2.933650526824   -2.232414356949    0.084946267623
 C    0.067040105466    1.234632345711    0.007828859204
 O    0.039459736361    2.462805430488    0.003740730776
 C   -1.005745020510    0.260938956437    0.014030057144
 N   -2.376818322279    0.447270001750    0.013954872428
 C   -2.870341816790   -0.791333012295    0.003624772763
 H   -3.927839730058   -1.045479634127    0.000678128337
 H   -2.009729992538   -2.766327227391   -0.011076770062
LI    3.628690024805    4.643890844005   -0.013357674389
