17

 N   -1.907392155849   -1.773574313970   -0.002308798756
 C   -0.697204089005   -1.118368110294    0.001652825212
 N    0.536208325298   -1.717045804756    0.013691110117
 C    1.506631525354   -0.826869663145    0.001818653144
 N    1.303554687941    0.534768470369   -0.005016507198
 H    2.107381813192    1.154729010124   -0.087004529620
 N    2.832086279591   -1.245544384825   -0.076528650091
 H    3.486622484923   -0.713741160425    0.491112126639
 H    2.910891366982   -2.246244528760    0.085054687898
 C    0.044280945624    1.220802173900    0.007937279479
 O    0.016700576519    2.448975258677    0.003849151051
 C   -1.028504180352    0.247108784626    0.014138477419
 N   -2.399577482121    0.433439829939    0.014063292703
 C   -2.893100976632   -0.805163184106    0.003733193038
 H   -3.950598889900   -1.059309805938    0.000786548612
 H   -2.032489152380   -2.780157399202   -0.010968349787
LI    4.118678049026    4.941644302697   -0.015691883423
