17

 N   -1.930151315692   -1.787404485780   -0.002200378480
 C   -0.719963248848   -1.132198282104    0.001761245488
 N    0.513449165455   -1.730875976566    0.013799530393
 C    1.483872365511   -0.840699834955    0.001927073420
 N    1.280795528098    0.520938298559   -0.004908086922
 H    2.084622653349    1.140898838314   -0.086896109344
 N    2.809327119748   -1.259374556635   -0.076420229815
 H    3.463863325080   -0.727571332235    0.491220546915
 H    2.888132207139   -2.260074700570    0.085163108174
 C    0.021521785781    1.206972002090    0.008045699755
 O   -0.006058583324    2.435145086867    0.003957571327
 C   -1.051263340195    0.233278612816    0.014246897695
 N   -2.422336641964    0.419609658129    0.014171712979
 C   -2.915860136475   -0.818993355916    0.003841613314
 H   -3.973358049743   -1.073139977748    0.000894968888
 H   -2.055248312223   -2.793987571012   -0.010859929511
LI    4.608666073247    5.239397761389   -0.018026092457
