17

 N   -1.937737702306   -1.792014543050   -0.002164238388
 C   -0.727549635462   -1.136808339374    0.001797385580
 N    0.505862778841   -1.735486033836    0.013835670485
 C    1.476285978897   -0.845309892225    0.001963213512
 N    1.273209141484    0.516328241289   -0.004871946830
 H    2.077036266735    1.136288781044   -0.086859969252
 N    2.801740733134   -1.263984613905   -0.076384089723
 H    3.456276938466   -0.732181389505    0.491256687007
 H    2.880545820525   -2.264684757840    0.085199248266
 C    0.013935399167    1.202361944820    0.008081839847
 O   -0.013644969938    2.430535029597    0.003993711419
 C   -1.058849726809    0.228668555546    0.014283037787
 N   -2.429923028578    0.414999600859    0.014207853071
 C   -2.923446523089   -0.823603413186    0.003877753406
 H   -3.980944436357   -1.077750035018    0.000931108980
 H   -2.062834698837   -2.798597628282   -0.010823789419
LI    4.771995414654    5.338648914286   -0.018804162135
