17

 N   -1.941530895613   -1.794319571685   -0.002146168343
 C   -0.731342828769   -1.139113368009    0.001815455625
 N    0.502069585534   -1.737791062471    0.013853740530
 C    1.472492785590   -0.847614920860    0.001981283557
 N    1.269415948177    0.514023212654   -0.004853876785
 H    2.073243073428    1.133983752409   -0.086841899207
 N    2.797947539827   -1.266289642540   -0.076366019678
 H    3.452483745159   -0.734486418140    0.491274757052
 H    2.876752627218   -2.266989786475    0.085217318311
 C    0.010142205860    1.200056916185    0.008099909892
 O   -0.017438163245    2.428230000962    0.004011781464
 C   -1.062642920116    0.226363526911    0.014301107832
 N   -2.433716221885    0.412694572224    0.014225923116
 C   -2.927239716396   -0.825908441821    0.003895823451
 H   -3.984737629664   -1.080055063653    0.000949179025
 H   -2.066627892144   -2.800902656917   -0.010805719374
LI    4.853660085358    5.388274490734   -0.019193196974
