17

 N   -1.952910475535   -1.801234657591   -0.002091958205
 C   -0.742722408691   -1.146028453915    0.001869665763
 N    0.490690005612   -1.744706148377    0.013907950668
 C    1.461113205668   -0.854530006766    0.002035493695
 N    1.258036368255    0.507108126748   -0.004799666647
 H    2.061863493506    1.127068666503   -0.086787689069
 N    2.786567959905   -1.273204728446   -0.076311809540
 H    3.441104165237   -0.741401504046    0.491328967190
 H    2.865373047296   -2.273904872381    0.085271528449
 C   -0.001237374062    1.193141830279    0.008154120030
 O   -0.028817743167    2.421314915056    0.004065991602
 C   -1.074022500038    0.219448441005    0.014355317970
 N   -2.445095801807    0.405779486318    0.014280133254
 C   -2.938619296318   -0.832823527727    0.003950033589
 H   -3.996117209586   -1.086970149559    0.001003389163
 H   -2.078007472066   -2.807817742823   -0.010751509236
LI    5.098654097468    5.537151220080   -0.020360301491
