17

 N   -1.964290055456   -1.808149743496   -0.002037748067
 C   -0.754101988612   -1.152943539820    0.001923875901
 N    0.479310425691   -1.751621234282    0.013962160806
 C    1.449733625747   -0.861445092671    0.002089703833
 N    1.246656788334    0.500193040843   -0.004745456509
 H    2.050483913585    1.120153580598   -0.086733478931
 N    2.775188379984   -1.280119814351   -0.076257599402
 H    3.429724585316   -0.748316589951    0.491383177328
 H    2.853993467375   -2.280819958286    0.085325738587
 C   -0.012616953983    1.186226744374    0.008208330168
 O   -0.040197323088    2.414399829151    0.004120201740
 C   -1.085402079959    0.212533355100    0.014409528108
 N   -2.456475381728    0.398864400413    0.014334343392
 C   -2.949998876239   -0.839738613632    0.004004243727
 H   -4.007496789507   -1.093885235464    0.001057599301
 H   -2.089387051987   -2.814732828728   -0.010697299098
LI    5.343648109578    5.686027949426   -0.021527406008
