17

 N   -1.975669635377   -1.815064829401   -0.001983537930
 C   -0.765481568533   -1.159858625725    0.001978086038
 N    0.467930845770   -1.758536320187    0.014016370943
 C    1.438354045826   -0.868360178576    0.002143913970
 N    1.235277208413    0.493277954938   -0.004691246372
 H    2.039104333664    1.113238494693   -0.086679268794
 N    2.763808800063   -1.287034900256   -0.076203389265
 H    3.418345005395   -0.755231675856    0.491437387465
 H    2.842613887454   -2.287735044191    0.085379948724
 C   -0.023996533904    1.179311658469    0.008262540305
 O   -0.051576903009    2.407484743246    0.004174411877
 C   -1.096781659880    0.205618269195    0.014463738245
 N   -2.467854961649    0.391949314508    0.014388553529
 C   -2.961378456160   -0.846653699537    0.004058453864
 H   -4.018876369428   -1.100800321369    0.001111809438
 H   -2.100766631908   -2.821647914633   -0.010643088961
LI    5.588642121689    5.834904678772   -0.022694510525
