17

 N   -1.979462828684   -1.817369858036   -0.001965467884
 C   -0.769274761840   -1.162163654360    0.001996156084
 N    0.464137652463   -1.760841348822    0.014034440989
 C    1.434560852519   -0.870665207211    0.002161984016
 N    1.231484015106    0.490972926303   -0.004673176326
 H    2.035311140357    1.110933466058   -0.086661198748
 N    2.760015606756   -1.289339928891   -0.076185319219
 H    3.414551812088   -0.757536704491    0.491455457511
 H    2.838820694147   -2.290040072826    0.085398018770
 C   -0.027789727211    1.177006629834    0.008280610351
 O   -0.055370096316    2.405179714611    0.004192481923
 C   -1.100574853187    0.203313240560    0.014481808291
 N   -2.471648154956    0.389644285873    0.014406623575
 C   -2.965171649467   -0.848958728172    0.004076523910
 H   -4.022669562735   -1.103105350004    0.001129879484
 H   -2.104559825215   -2.823952943268   -0.010625018915
LI    5.670306792392    5.884530255221   -0.023083545364
