17

 N   -1.987049215298   -1.821979915306   -0.001929327792
 C   -0.776861148454   -1.166773711630    0.002032296176
 N    0.456551265849   -1.765451406092    0.014070581081
 C    1.426974465905   -0.875275264481    0.002198124108
 N    1.223897628492    0.486362869033   -0.004637036234
 H    2.027724753743    1.106323408788   -0.086625058656
 N    2.752429220142   -1.293949986161   -0.076149179127
 H    3.406965425474   -0.762146761761    0.491491597603
 H    2.831234307533   -2.294650130096    0.085434158862
 C   -0.035376113825    1.172396572564    0.008316750443
 O   -0.062956482930    2.400569657341    0.004228622015
 C   -1.108161239801    0.198703183290    0.014517948383
 N   -2.479234541570    0.385034228603    0.014442763667
 C   -2.972758036081   -0.853568785442    0.004112664002
 H   -4.030255949349   -1.107715407274    0.001166019576
 H   -2.112146211829   -2.828563000538   -0.010588878823
LI    5.833636133799    5.983781408118   -0.023861615042
