17

 N   -1.990842408605   -1.824284943941   -0.001911257746
 C   -0.780654341761   -1.169078740265    0.002050366222
 N    0.452758072542   -1.767756434727    0.014088651127
 C    1.423181272598   -0.877580293116    0.002216194154
 N    1.220104435185    0.484057840398   -0.004618966188
 H    2.023931560436    1.104018380153   -0.086606988610
 N    2.748636026835   -1.296255014796   -0.076131109081
 H    3.403172232167   -0.764451790396    0.491509667649
 H    2.827441114226   -2.296955158731    0.085452228908
 C   -0.039169307132    1.170091543929    0.008334820489
 O   -0.066749676237    2.398264628706    0.004246692061
 C   -1.111954433108    0.196398154655    0.014536018429
 N   -2.483027734877    0.382729199968    0.014460833713
 C   -2.976551229388   -0.855873814077    0.004130734048
 H   -4.034049142656   -1.110020435909    0.001184089622
 H   -2.115939405136   -2.830868029173   -0.010570808777
LI    5.915300804503    6.033406984567   -0.024250649881
