17

 N   -1.994635601913   -1.826589972576   -0.001893187700
 C   -0.784447535069   -1.171383768900    0.002068436268
 N    0.448964879234   -1.770061463362    0.014106721173
 C    1.419388079290   -0.879885321751    0.002234264200
 N    1.216311241877    0.481752811763   -0.004600896142
 H    2.020138367128    1.101713351518   -0.086588918564
 N    2.744842833527   -1.298560043431   -0.076113039035
 H    3.399379038859   -0.766756819031    0.491527737695
 H    2.823647920918   -2.299260187366    0.085470298954
 C   -0.042962500440    1.167786515294    0.008352890535
 O   -0.070542869545    2.395959600071    0.004264762107
 C   -1.115747626416    0.194093126020    0.014554088475
 N   -2.486820928185    0.380424171333    0.014478903759
 C   -2.980344422696   -0.858178842712    0.004148804094
 H   -4.037842335964   -1.112325464544    0.001202159668
 H   -2.119732598444   -2.833173057808   -0.010552738731
LI    5.996965475206    6.083032561016   -0.024639684720
