17

 N   -2.024981148369   -1.845030201657   -0.001748627333
 C   -0.814793081525   -1.189823997981    0.002212996635
 N    0.418619332778   -1.788501692443    0.014251281540
 C    1.389042532834   -0.898325550832    0.002378824567
 N    1.185965695421    0.463312582682   -0.004456335775
 H    1.989792820672    1.083273122437   -0.086444358197
 N    2.714497287071   -1.317000272512   -0.075968478668
 H    3.369033492403   -0.785197048112    0.491672298062
 H    2.793302374462   -2.317700416447    0.085614859321
 C   -0.073308046896    1.149346286213    0.008497450902
 O   -0.100888416001    2.377519370990    0.004409322474
 C   -1.146093172872    0.175652896939    0.014698648842
 N   -2.517166474641    0.361983942252    0.014623464126
 C   -3.010689969152   -0.876619071793    0.004293364461
 H   -4.068187882420   -1.130765693625    0.001346720035
 H   -2.150078144900   -2.851613286889   -0.010408178364
LI    6.650282840834    6.480037172605   -0.027751963432
