17

 N   -2.036360728291   -1.851945287562   -0.001694417195
 C   -0.826172661447   -1.196739083886    0.002267206773
 N    0.407239752856   -1.795416778348    0.014305491678
 C    1.377662952912   -0.905240636737    0.002433034705
 N    1.174586115499    0.456397496777   -0.004402125637
 H    1.978413240750    1.076358036532   -0.086390148059
 N    2.703117707149   -1.323915358417   -0.075914268530
 H    3.357653912481   -0.792112134017    0.491726508200
 H    2.781922794540   -2.324615502352    0.085669069459
 C   -0.084687626818    1.142431200308    0.008551661040
 O   -0.112267995923    2.370604285085    0.004463532612
 C   -1.157472752794    0.168737811034    0.014752858980
 N   -2.528546054563    0.355068856347    0.014677674264
 C   -3.022069549074   -0.883534157698    0.004347574599
 H   -4.079567462342   -1.137680779530    0.001400930173
 H   -2.161457724822   -2.858528372794   -0.010353968226
LI    6.895276852945    6.628913901951   -0.028919067949
