17

 N   -2.055326694826   -1.863470430738   -0.001604066966
 C   -0.845138627982   -1.208264227062    0.002357557002
 N    0.388273786321   -1.806941921524    0.014395841907
 C    1.358696986377   -0.916765779913    0.002523384934
 N    1.155620148964    0.444872353601   -0.004311775408
 H    1.959447274215    1.064832893356   -0.086299797830
 N    2.684151740614   -1.335440501593   -0.075823918301
 H    3.338687945946   -0.803637277193    0.491816858429
 H    2.762956828005   -2.336140645528    0.085759419688
 C   -0.103653593353    1.130906057132    0.008642011269
 O   -0.131233962458    2.359079141909    0.004553882841
 C   -1.176438719329    0.157212667858    0.014843209209
 N   -2.547512021098    0.343543713171    0.014768024493
 C   -3.041035515609   -0.895059300874    0.004437924828
 H   -4.098533428877   -1.149205922706    0.001491280402
 H   -2.180423691357   -2.870053515970   -0.010263617997
LI    7.303600206462    6.877041784194   -0.030864242144
