17

 N   -2.059119888133   -1.865775459373   -0.001585996920
 C   -0.848931821289   -1.210569255697    0.002375627048
 N    0.384480593014   -1.809246950159    0.014413911953
 C    1.354903793070   -0.919070808548    0.002541454980
 N    1.151826955657    0.442567324966   -0.004293705362
 H    1.955654080908    1.062527864721   -0.086281727784
 N    2.680358547307   -1.337745530228   -0.075805848255
 H    3.334894752639   -0.805942305828    0.491834928475
 H    2.759163634698   -2.338445674163    0.085777489734
 C   -0.107446786660    1.128601028497    0.008660081315
 O   -0.135027155765    2.356774113274    0.004571952887
 C   -1.180231912636    0.154907639223    0.014861279255
 N   -2.551305214405    0.341238684536    0.014786094539
 C   -3.044828708916   -0.897364329509    0.004455994874
 H   -4.102326622184   -1.151510951341    0.001509350448
 H   -2.184216884664   -2.872358544605   -0.010245547951
LI    7.385264877166    6.926667360643   -0.031253276983
