17

 N   -2.081879047976   -1.879605631183   -0.001477576645
 C   -0.871690981132   -1.224399427507    0.002484047323
 N    0.361721433171   -1.823077121969    0.014522332228
 C    1.332144633227   -0.932900980358    0.002649875255
 N    1.129067795814    0.428737153156   -0.004185285087
 H    1.932894921065    1.048697692911   -0.086173307509
 N    2.657599387464   -1.351575702038   -0.075697427980
 H    3.312135592796   -0.819772477638    0.491943348750
 H    2.736404474855   -2.352275845973    0.085885910009
 C   -0.130205946503    1.114770856687    0.008768501590
 O   -0.157786315608    2.342943941464    0.004680373162
 C   -1.202991072479    0.141077467413    0.014969699530
 N   -2.574064374248    0.327408512726    0.014894514814
 C   -3.067587868759   -0.911194501319    0.004564415149
 H   -4.125085782027   -1.165341123151    0.001617770723
 H   -2.206976044507   -2.886188716415   -0.010137127676
LI    7.875252901386    7.224420819335   -0.033587486017
