10

 C   -0.082830392926   -2.102665389485    0.000000000000
 C   -1.182129392926   -1.053805389485    0.000000000000
 N   -2.461737392926   -1.557594389485    0.000000000000
 H   -3.236410392926   -0.907010389485    0.000000000000
 H   -2.648408392926   -2.549645389485    0.000000000000
 O   -0.960537392926    0.159196610515    0.000000000000
 H    0.887834607074   -1.593520389485    0.000000000000
 H   -0.162468392926   -2.743670389485    0.892247000000
 H   -0.162468392926   -2.743670389485   -0.892247000000
RB    0.828844702209    0.798032831788    0.000000000000
