10

 C   -4.582640004766   -3.709164849100    0.000000000000
 C   -5.681939004766   -2.660304849100    0.000000000000
 N   -6.961547004766   -3.164093849100    0.000000000000
 H   -7.736220004766   -2.513509849100    0.000000000000
 H   -7.148218004766   -4.156144849100    0.000000000000
 O   -5.460347004766   -1.447302849100    0.000000000000
 H   -3.611975004766   -3.200019849100    0.000000000000
 H   -4.662278004766   -4.350169849100    0.892247000000
 H   -4.662278004766   -4.350169849100   -0.892247000000
RB    3.957453495943    1.914993052339    0.000000000000
