10

 C   -0.193936803095   -2.142332042809    0.000000000000
 C   -1.293235803095   -1.093472042809    0.000000000000
 N   -2.572843803095   -1.597261042809    0.000000000000
 H   -3.347516803095   -0.946677042809    0.000000000000
 H   -2.759514803095   -2.589312042809    0.000000000000
 O   -1.071643803095    0.119529957191    0.000000000000
 H    0.776728196905   -1.633187042809    0.000000000000
 H   -0.273574803095   -2.783337042809    0.892247000000
 H   -0.273574803095   -2.783337042809   -0.892247000000
RB    0.906094302054    0.825612096493    0.000000000000
