10

 C   -0.305043213264   -2.181998696133    0.000000000000
 C   -1.404342213264   -1.133138696133    0.000000000000
 N   -2.683950213264   -1.636927696133    0.000000000000
 H   -3.458623213264   -0.986343696133    0.000000000000
 H   -2.870621213264   -2.628978696133    0.000000000000
 O   -1.182750213264    0.079863303867    0.000000000000
 H    0.665621786736   -1.672853696133    0.000000000000
 H   -0.384681213264   -2.823003696133    0.892247000000
 H   -0.384681213264   -2.823003696133   -0.892247000000
RB    0.983343901899    0.853191361198    0.000000000000
