10

 C   -0.360596418348   -2.201832022795    0.000000000000
 C   -1.459895418348   -1.152972022795    0.000000000000
 N   -2.739503418348   -1.656761022795    0.000000000000
 H   -3.514176418348   -1.006177022795    0.000000000000
 H   -2.926174418348   -2.648812022795    0.000000000000
 O   -1.238303418348    0.060029977205    0.000000000000
 H    0.610068581652   -1.692687022795    0.000000000000
 H   -0.440234418348   -2.842837022795    0.892247000000
 H   -0.440234418348   -2.842837022795   -0.892247000000
RB    1.021968701822    0.866980993551    0.000000000000
