10

 C   -0.416149623433   -2.221665349457    0.000000000000
 C   -1.515448623433   -1.172805349457    0.000000000000
 N   -2.795056623433   -1.676594349457    0.000000000000
 H   -3.569729623433   -1.026010349457    0.000000000000
 H   -2.981727623433   -2.668645349457    0.000000000000
 O   -1.293856623433    0.040196650543    0.000000000000
 H    0.554515376567   -1.712520349457    0.000000000000
 H   -0.495787623433   -2.862670349457    0.892247000000
 H   -0.495787623433   -2.862670349457   -0.892247000000
RB    1.060593501745    0.880770625903    0.000000000000
