10

 C   -0.527256033602   -2.261332002780    0.000000000000
 C   -1.626555033602   -1.212472002780    0.000000000000
 N   -2.906163033602   -1.716261002780    0.000000000000
 H   -3.680836033602   -1.065677002780    0.000000000000
 H   -3.092834033602   -2.708312002780    0.000000000000
 O   -1.404963033602    0.000529997220    0.000000000000
 H    0.443408966398   -1.752187002780    0.000000000000
 H   -0.606894033602   -2.902337002780    0.892247000000
 H   -0.606894033602   -2.902337002780   -0.892247000000
RB    1.137843101590    0.908349890608    0.000000000000
