10

 C   -0.582809238686   -2.281165329442    0.000000000000
 C   -1.682108238686   -1.232305329442    0.000000000000
 N   -2.961716238686   -1.736094329442    0.000000000000
 H   -3.736389238686   -1.085510329442    0.000000000000
 H   -3.148387238686   -2.728145329442    0.000000000000
 O   -1.460516238686   -0.019303329442    0.000000000000
 H    0.387855761314   -1.772020329442    0.000000000000
 H   -0.662447238686   -2.922170329442    0.892247000000
 H   -0.662447238686   -2.922170329442   -0.892247000000
RB    1.176467901512    0.922139522961    0.000000000000
