10

 C   -0.749468853940   -2.340665309428    0.000000000000
 C   -1.848767853940   -1.291805309428    0.000000000000
 N   -3.128375853940   -1.795594309428    0.000000000000
 H   -3.903048853940   -1.145010309428    0.000000000000
 H   -3.315046853940   -2.787645309428    0.000000000000
 O   -1.627175853940   -0.078803309428    0.000000000000
 H    0.221196146060   -1.831520309428    0.000000000000
 H   -0.829106853940   -2.981670309428    0.892247000000
 H   -0.829106853940   -2.981670309428   -0.892247000000
RB    1.292342301280    0.963508420018    0.000000000000
