10

 C   -0.916128469193   -2.400165289414    0.000000000000
 C   -2.015427469193   -1.351305289414    0.000000000000
 N   -3.295035469193   -1.855094289414    0.000000000000
 H   -4.069708469193   -1.204510289414    0.000000000000
 H   -3.481706469193   -2.847145289414    0.000000000000
 O   -1.793835469193   -0.138303289414    0.000000000000
 H    0.054536530807   -1.891020289414    0.000000000000
 H   -0.995766469193   -3.041170289414    0.892247000000
 H   -0.995766469193   -3.041170289414   -0.892247000000
RB    1.408216701048    1.004877317076    0.000000000000
