10

 C   -1.193894494615   -2.499331922723    0.000000000000
 C   -2.293193494615   -1.450471922723    0.000000000000
 N   -3.572801494615   -1.954260922723    0.000000000000
 H   -4.347474494615   -1.303676922723    0.000000000000
 H   -3.759472494615   -2.946311922723    0.000000000000
 O   -2.071601494615   -0.237469922723    0.000000000000
 H   -0.223229494615   -1.990186922723    0.000000000000
 H   -1.273532494615   -3.140336922723    0.892247000000
 H   -1.273532494615   -3.140336922723   -0.892247000000
RB    1.601340700662    1.073825478838    0.000000000000
