10

 C   -1.249447699700   -2.519165249385    0.000000000000
 C   -2.348746699700   -1.470305249385    0.000000000000
 N   -3.628354699700   -1.974094249385    0.000000000000
 H   -4.403027699700   -1.323510249385    0.000000000000
 H   -3.815025699700   -2.966145249385    0.000000000000
 O   -2.127154699700   -0.257303249385    0.000000000000
 H   -0.278782699700   -2.010020249385    0.000000000000
 H   -1.329085699700   -3.160170249385    0.892247000000
 H   -1.329085699700   -3.160170249385   -0.892247000000
RB    1.639965500584    1.087615111190    0.000000000000
