10

 C   -1.305000904784   -2.538998576047    0.000000000000
 C   -2.404299904784   -1.490138576047    0.000000000000
 N   -3.683907904784   -1.993927576047    0.000000000000
 H   -4.458580904784   -1.343343576047    0.000000000000
 H   -3.870578904784   -2.985978576047    0.000000000000
 O   -2.182707904784   -0.277136576047    0.000000000000
 H   -0.334335904784   -2.029853576047    0.000000000000
 H   -1.384638904784   -3.180003576047    0.892247000000
 H   -1.384638904784   -3.180003576047   -0.892247000000
RB    1.678590300507    1.101404743543    0.000000000000
