10

 C   -1.360554109869   -2.558831902709    0.000000000000
 C   -2.459853109869   -1.509971902709    0.000000000000
 N   -3.739461109869   -2.013760902709    0.000000000000
 H   -4.514134109869   -1.363176902709    0.000000000000
 H   -3.926132109869   -3.005811902709    0.000000000000
 O   -2.238261109869   -0.296969902709    0.000000000000
 H   -0.389889109869   -2.049686902709    0.000000000000
 H   -1.440192109869   -3.199836902709    0.892247000000
 H   -1.440192109869   -3.199836902709   -0.892247000000
RB    1.717215100430    1.115194375895    0.000000000000
