10

 C   -1.971639365797   -2.776998495990    0.000000000000
 C   -3.070938365797   -1.728138495990    0.000000000000
 N   -4.350546365797   -2.231927495990    0.000000000000
 H   -5.125219365797   -1.581343495990    0.000000000000
 H   -4.537217365797   -3.223978495990    0.000000000000
 O   -2.849346365797   -0.515136495990    0.000000000000
 H   -1.000974365797   -2.267853495990    0.000000000000
 H   -2.051277365797   -3.418003495990    0.892247000000
 H   -2.051277365797   -3.418003495990   -0.892247000000
RB    2.142087899579    1.266880331773    0.000000000000
