10

 C   -2.138298981051   -2.836498475976    0.000000000000
 C   -3.237597981051   -1.787638475976    0.000000000000
 N   -4.517205981051   -2.291427475976    0.000000000000
 H   -5.291878981051   -1.640843475976    0.000000000000
 H   -4.703876981051   -3.283478475976    0.000000000000
 O   -3.016005981051   -0.574636475976    0.000000000000
 H   -1.167633981051   -2.327353475976    0.000000000000
 H   -2.217936981051   -3.477503475976    0.892247000000
 H   -2.217936981051   -3.477503475976   -0.892247000000
RB    2.257962299347    1.308249228830    0.000000000000
