10

 C   -2.193852186135   -2.856331802638    0.000000000000
 C   -3.293151186135   -1.807471802638    0.000000000000
 N   -4.572759186135   -2.311260802638    0.000000000000
 H   -5.347432186135   -1.660676802638    0.000000000000
 H   -4.759430186135   -3.303311802638    0.000000000000
 O   -3.071559186135   -0.594469802638    0.000000000000
 H   -1.223187186135   -2.347186802638    0.000000000000
 H   -2.273490186135   -3.497336802638    0.892247000000
 H   -2.273490186135   -3.497336802638   -0.892247000000
RB    2.296587099269    1.322038861183    0.000000000000
