10

 C   -2.304958596304   -2.895998455961    0.000000000000
 C   -3.404257596304   -1.847138455961    0.000000000000
 N   -4.683865596304   -2.350927455961    0.000000000000
 H   -5.458538596304   -1.700343455961    0.000000000000
 H   -4.870536596304   -3.342978455961    0.000000000000
 O   -3.182665596304   -0.634136455961    0.000000000000
 H   -1.334293596304   -2.386853455961    0.000000000000
 H   -2.384596596304   -3.537003455961    0.892247000000
 H   -2.384596596304   -3.537003455961   -0.892247000000
RB    2.373836699115    1.349618125888    0.000000000000
