10

 C   -2.416065006473   -2.935665109285    0.000000000000
 C   -3.515364006473   -1.886805109285    0.000000000000
 N   -4.794972006473   -2.390594109285    0.000000000000
 H   -5.569645006473   -1.740010109285    0.000000000000
 H   -4.981643006473   -3.382645109285    0.000000000000
 O   -3.293772006473   -0.673803109285    0.000000000000
 H   -1.445400006473   -2.426520109285    0.000000000000
 H   -2.495703006473   -3.576670109285    0.892247000000
 H   -2.495703006473   -3.576670109285   -0.892247000000
RB    2.451086298960    1.377197390593    0.000000000000
