10

 C   -2.971597057317   -3.133998375904    0.000000000000
 C   -4.070896057317   -2.085138375904    0.000000000000
 N   -5.350504057317   -2.588927375904    0.000000000000
 H   -6.125177057317   -1.938343375904    0.000000000000
 H   -5.537175057317   -3.580978375904    0.000000000000
 O   -3.849304057317   -0.872136375904    0.000000000000
 H   -2.000932057317   -2.624853375904    0.000000000000
 H   -3.051235057317   -3.775003375904    0.892247000000
 H   -3.051235057317   -3.775003375904   -0.892247000000
RB    2.837334298186    1.515093714117    0.000000000000
