10

 C   -3.249363082740   -3.233165009214    0.000000000000
 C   -4.348662082740   -2.184305009214    0.000000000000
 N   -5.628270082740   -2.688094009214    0.000000000000
 H   -6.402943082740   -2.037510009214    0.000000000000
 H   -5.814941082740   -3.680145009214    0.000000000000
 O   -4.127070082740   -0.971303009214    0.000000000000
 H   -2.278698082740   -2.724020009214    0.000000000000
 H   -3.329001082740   -3.874170009214    0.892247000000
 H   -3.329001082740   -3.874170009214   -0.892247000000
RB    3.030458297800    1.584041875880    0.000000000000
