10

 C   -3.360469492909   -3.272831662538    0.000000000000
 C   -4.459768492909   -2.223971662538    0.000000000000
 N   -5.739376492909   -2.727760662538    0.000000000000
 H   -6.514049492909   -2.077176662538    0.000000000000
 H   -5.926047492909   -3.719811662538    0.000000000000
 O   -4.238176492909   -1.010969662538    0.000000000000
 H   -2.389804492909   -2.763686662538    0.000000000000
 H   -3.440107492909   -3.913836662538    0.892247000000
 H   -3.440107492909   -3.913836662538   -0.892247000000
RB    3.107707897645    1.611621140585    0.000000000000
