10

 C   -3.416022697993   -3.292664989200    0.000000000000
 C   -4.515321697993   -2.243804989200    0.000000000000
 N   -5.794929697993   -2.747593989200    0.000000000000
 H   -6.569602697993   -2.097009989200    0.000000000000
 H   -5.981600697993   -3.739644989200    0.000000000000
 O   -4.293729697993   -1.030802989200    0.000000000000
 H   -2.445357697993   -2.783519989200    0.000000000000
 H   -3.495660697993   -3.933669989200    0.892247000000
 H   -3.495660697993   -3.933669989200   -0.892247000000
RB    3.146332697567    1.625410772937    0.000000000000
