10

 C   -3.527129108162   -3.332331642523    0.000000000000
 C   -4.626428108162   -2.283471642523    0.000000000000
 N   -5.906036108162   -2.787260642523    0.000000000000
 H   -6.680709108162   -2.136676642523    0.000000000000
 H   -6.092707108162   -3.779311642523    0.000000000000
 O   -4.404836108162   -1.070469642523    0.000000000000
 H   -2.556464108162   -2.823186642523    0.000000000000
 H   -3.606767108162   -3.973336642523    0.892247000000
 H   -3.606767108162   -3.973336642523   -0.892247000000
RB    3.223582297413    1.652990037642    0.000000000000
