10

 C   -3.582682313246   -3.352164969185    0.000000000000
 C   -4.681981313246   -2.303304969185    0.000000000000
 N   -5.961589313246   -2.807093969185    0.000000000000
 H   -6.736262313246   -2.156509969185    0.000000000000
 H   -6.148260313246   -3.799144969185    0.000000000000
 O   -4.460389313246   -1.090302969185    0.000000000000
 H   -2.612017313246   -2.843019969185    0.000000000000
 H   -3.662320313246   -3.993169969185    0.892247000000
 H   -3.662320313246   -3.993169969185   -0.892247000000
RB    3.262207097335    1.666779669995    0.000000000000
