10

 C   -3.749341928500   -3.411664949171    0.000000000000
 C   -4.848640928500   -2.362804949171    0.000000000000
 N   -6.128248928500   -2.866593949171    0.000000000000
 H   -6.902921928500   -2.216009949171    0.000000000000
 H   -6.314919928500   -3.858644949171    0.000000000000
 O   -4.627048928500   -1.149802949171    0.000000000000
 H   -2.778676928500   -2.902519949171    0.000000000000
 H   -3.828979928500   -4.052669949171    0.892247000000
 H   -3.828979928500   -4.052669949171   -0.892247000000
RB    3.378081497103    1.708148567052    0.000000000000
