10

 C   -3.804895133584   -3.431498275833    0.000000000000
 C   -4.904194133584   -2.382638275833    0.000000000000
 N   -6.183802133584   -2.886427275833    0.000000000000
 H   -6.958475133584   -2.235843275833    0.000000000000
 H   -6.370473133584   -3.878478275833    0.000000000000
 O   -4.682602133584   -1.169636275833    0.000000000000
 H   -2.834230133584   -2.922353275833    0.000000000000
 H   -3.884533133584   -4.072503275833    0.892247000000
 H   -3.884533133584   -4.072503275833   -0.892247000000
RB    3.416706297026    1.721938199405    0.000000000000
