10

 C   -3.971554748838   -3.490998255819    0.000000000000
 C   -5.070853748838   -2.442138255819    0.000000000000
 N   -6.350461748838   -2.945927255819    0.000000000000
 H   -7.125134748838   -2.295343255819    0.000000000000
 H   -6.537132748838   -3.937978255819    0.000000000000
 O   -4.849261748838   -1.229136255819    0.000000000000
 H   -3.000889748838   -2.981853255819    0.000000000000
 H   -4.051192748838   -4.132003255819    0.892247000000
 H   -4.051192748838   -4.132003255819   -0.892247000000
RB    3.532580696794    1.763307096462    0.000000000000
