10

 C   -4.249320774260   -3.590164889128    0.000000000000
 C   -5.348619774260   -2.541304889128    0.000000000000
 N   -6.628227774260   -3.045093889128    0.000000000000
 H   -7.402900774260   -2.394509889128    0.000000000000
 H   -6.814898774260   -4.037144889128    0.000000000000
 O   -5.127027774260   -1.328302889128    0.000000000000
 H   -3.278655774260   -3.081019889128    0.000000000000
 H   -4.328958774260   -4.231169889128    0.892247000000
 H   -4.328958774260   -4.231169889128   -0.892247000000
RB    3.725704696407    1.832255258225    0.000000000000
