10

 C   -4.304873979344   -3.609998215790    0.000000000000
 C   -5.404172979344   -2.561138215790    0.000000000000
 N   -6.683780979344   -3.064927215790    0.000000000000
 H   -7.458453979344   -2.414343215790    0.000000000000
 H   -6.870451979344   -4.056978215790    0.000000000000
 O   -5.182580979344   -1.348136215790    0.000000000000
 H   -3.334208979344   -3.100853215790    0.000000000000
 H   -4.384511979344   -4.251003215790    0.892247000000
 H   -4.384511979344   -4.251003215790   -0.892247000000
RB    3.764329496330    1.846044890577    0.000000000000
