10

 C   -4.415980389513   -3.649664869114    0.000000000000
 C   -5.515279389513   -2.600804869114    0.000000000000
 N   -6.794887389513   -3.104593869114    0.000000000000
 H   -7.569560389513   -2.454009869114    0.000000000000
 H   -6.981558389513   -4.096644869114    0.000000000000
 O   -5.293687389513   -1.387802869114    0.000000000000
 H   -3.445315389513   -3.140519869114    0.000000000000
 H   -4.495618389513   -4.290669869114    0.892247000000
 H   -4.495618389513   -4.290669869114   -0.892247000000
RB    3.841579096175    1.873624155282    0.000000000000
