10

 C   -4.471533594598   -3.669498195776    0.000000000000
 C   -5.570832594598   -2.620638195776    0.000000000000
 N   -6.850440594598   -3.124427195776    0.000000000000
 H   -7.625113594598   -2.473843195776    0.000000000000
 H   -7.037111594598   -4.116478195776    0.000000000000
 O   -5.349240594598   -1.407636195776    0.000000000000
 H   -3.500868594598   -3.160353195776    0.000000000000
 H   -4.551171594598   -4.310503195776    0.892247000000
 H   -4.551171594598   -4.310503195776   -0.892247000000
RB    3.880203896098    1.887413787635    0.000000000000
