10

 C   -4.527086799682   -3.689331522438    0.000000000000
 C   -5.626385799682   -2.640471522438    0.000000000000
 N   -6.905993799682   -3.144260522438    0.000000000000
 H   -7.680666799682   -2.493676522438    0.000000000000
 H   -7.092664799682   -4.136311522438    0.000000000000
 O   -5.404793799682   -1.427469522438    0.000000000000
 H   -3.556421799682   -3.180186522438    0.000000000000
 H   -4.606724799682   -4.330336522438    0.892247000000
 H   -4.606724799682   -4.330336522438   -0.892247000000
RB    3.918828696020    1.901203419987    0.000000000000
