26

 N    2.141348001510    2.856282804351    0.187667600833
 C    3.415888001510    3.350852804351   -0.106902399167
 H    3.488948001510    4.437122804351   -0.163232399167
 C    1.883628001510    1.533082804351    0.356017600833
 O    0.740918001510    1.086132804351    0.632697600833
 N    2.940418001510    0.694902804351    0.115067600833
 H    2.840228001510   -0.269267195649    0.437217600833
 C    4.304678001510    1.076932804351   -0.195072399167
 O    5.135838001510    0.198542804351   -0.326852399167
 C    4.472948001510    2.521832804351   -0.318542399167
 H    5.464008001510    2.914972804351   -0.543072399167
 H    1.376258001510    3.495242804351    0.386317600833
 K   -1.038971998490   -0.269307195649    1.720537600833
 K    0.883788001510    0.041812804351   -1.853062399167
 O   -0.686943145612   -1.007014540468   -0.586612886995
 C   -1.829648103799   -1.453955553437   -0.309926953921
 N   -2.087370617156   -2.777161032443   -0.141590095099
 H   -1.322287241787   -3.416124922786   -0.340240198726
 C   -3.361909834491   -3.271733333668    0.152991374849
 H   -3.434972226224   -4.358003316967    0.209310489714
 C   -4.418974930293   -2.442707986557    0.364638155080
 H   -5.410039125325   -2.835850175390    0.589172243998
 C   -4.250709331997   -0.997802936815    0.241171173014
 O   -5.081867464382   -0.119419066325    0.372960920471
 N   -2.886448021003   -0.615775336152   -0.068969233507
 H   -2.786258955027    0.348395344332   -0.391116513570
