26

 N    2.179023512674    2.911512541722    0.219840299130
 C    3.453563512674    3.406082541722   -0.074729700870
 H    3.526623512674    4.492352541722   -0.131059700870
 C    1.921303512674    1.588312541722    0.388190299130
 O    0.778593512674    1.141362541722    0.664870299130
 N    2.978093512674    0.750132541722    0.147240299130
 H    2.877903512674   -0.214037458278    0.469390299130
 C    4.342353512674    1.132162541722   -0.162899700870
 O    5.173513512674    0.253772541722   -0.294679700870
 C    4.510623512674    2.577062541722   -0.286369700870
 H    5.501683512674    2.970202541722   -0.510899700870
 H    1.413933512674    3.550472541722    0.418490299130
 K   -1.001296487326   -0.214077458278    1.752710299130
 K    0.921463512674    0.097042541722   -1.820889700870
 O   -0.750826158968   -1.100662693900   -0.641165270002
 C   -1.893531117155   -1.547603706870   -0.364479336929
 N   -2.151253630512   -2.870809185875   -0.196142478106
 H   -1.386170255143   -3.509773076218   -0.394792581734
 C   -3.425792847847   -3.365381487101    0.098438991842
 H   -3.498855239580   -4.451651470399    0.154758106706
 C   -4.482857943649   -2.536356139989    0.310085772072
 H   -5.473922138681   -2.929498328822    0.534619860990
 C   -4.314592345354   -1.091451090247    0.186618790006
 O   -5.145750477738   -0.213067219758    0.318408537464
 N   -2.950331034359   -0.709423489584   -0.123521616514
 H   -2.850141968383    0.254747190900   -0.445668896578
