26

 N    2.197861268256    2.939127410408    0.235926648279
 C    3.472401268256    3.433697410408   -0.058643351721
 H    3.545461268256    4.519967410408   -0.114973351721
 C    1.940141268256    1.615927410408    0.404276648279
 O    0.797431268256    1.168977410408    0.680956648279
 N    2.996931268256    0.777747410408    0.163326648279
 H    2.896741268256   -0.186422589592    0.485476648279
 C    4.361191268256    1.159777410408   -0.146813351721
 O    5.192351268256    0.281387410408   -0.278593351721
 C    4.529461268256    2.604677410408   -0.270283351721
 H    5.520521268256    2.997817410408   -0.494813351721
 H    1.432771268256    3.578087410408    0.434576648279
 K   -0.982458731744   -0.186462589592    1.768796648279
 K    0.940301268256    0.124657410408   -1.804803351721
 O   -0.782767665646   -1.147486770616   -0.668441461506
 C   -1.925472623833   -1.594427783586   -0.391755528433
 N   -2.183195137190   -2.917633262591   -0.223418669610
 H   -1.418111761821   -3.556597152935   -0.422068773237
 C   -3.457734354525   -3.412205563817    0.071162800338
 H   -3.530796746258   -4.498475547115    0.127481915202
 C   -4.514799450328   -2.583180216705    0.282809580569
 H   -5.505863645359   -2.976322405539    0.507343669486
 C   -4.346533852032   -1.138275166963    0.159342598502
 O   -5.177691984416   -0.259891296474    0.291132345960
 N   -2.982272541037   -0.756247566301   -0.150797808018
 H   -2.882083475061    0.207923114184   -0.472945088081
