26

 N    2.254374535002    3.021972016464    0.284185695724
 C    3.528914535002    3.516542016464   -0.010384304276
 H    3.601974535002    4.602812016464   -0.066714304276
 C    1.996654535002    1.698772016464    0.452535695724
 O    0.853944535002    1.251822016464    0.729215695724
 N    3.053444535002    0.860592016464    0.211585695724
 H    2.953254535002   -0.103577983536    0.533735695724
 C    4.417704535002    1.242622016464   -0.098554304276
 O    5.248864535002    0.364232016464   -0.230334304276
 C    4.585974535002    2.687522016464   -0.222024304276
 H    5.577034535002    3.080662016464   -0.446554304276
 H    1.489284535002    3.660932016464    0.482835695724
 K   -0.925945464998   -0.103617983536    1.817055695724
 K    0.996814535002    0.207502016464   -1.756544304276
 O   -0.878592185680   -1.287959000764   -0.750270036017
 C   -2.021297143867   -1.734900013734   -0.473584102944
 N   -2.279019657224   -3.058105492740   -0.305247244121
 H   -1.513936281855   -3.697069383083   -0.503897347748
 C   -3.553558874559   -3.552677793965   -0.010665774173
 H   -3.626621266293   -4.638947777263    0.045653340691
 C   -4.610623970362   -2.723652446853    0.200981006057
 H   -5.601688165393   -3.116794635687    0.425515094975
 C   -4.442358372066   -1.278747397111    0.077514023991
 O   -5.273516504451   -0.400363526622    0.209303771449
 N   -3.078097061072   -0.896719796449   -0.232626382529
 H   -2.977907995095    0.067450884036   -0.554773662593
