26

 N    3.799070492726    5.286391248672    1.603266325907
 C    5.073610492726    5.780961248672    1.308696325907
 H    5.146670492726    6.867231248672    1.252366325907
 C    3.541350492726    3.963191248672    1.771616325907
 O    2.398640492726    3.516241248672    2.048296325907
 N    4.598140492726    3.125011248672    1.530666325907
 H    4.497950492726    2.160841248672    1.852816325907
 C    5.962400492726    3.507041248672    1.220526325907
 O    6.793560492726    2.628651248672    1.088746325907
 C    6.130670492726    4.951941248672    1.097056325907
 H    7.121730492726    5.345081248672    0.872526325907
 H    3.033980492726    5.925351248672    1.801916325907
 K    0.618750492726    2.160801248672    3.136136325907
 K    2.541510492726    2.471921248672   -0.437463674093
 O   -3.497795733284   -5.127533291486   -2.986917739323
 C   -4.640500691470   -5.574474304455   -2.710231806250
 N   -4.898223204828   -6.897679783461   -2.541894947427
 H   -4.133139829459   -7.536643673804   -2.740545051054
 C   -6.172762422163   -7.392252084686   -2.247313477479
 H   -6.245824813896   -8.478522067985   -2.190994362615
 C   -7.229827517965   -6.563226737575   -2.035666697248
 H   -8.220891712996   -6.956368926408   -1.811132608331
 C   -7.061561919669   -5.118321687833   -2.159133679315
 O   -7.892720052054   -4.239937817343   -2.027343931857
 N   -5.697300608675   -4.736294087170   -2.469274085835
 H   -5.597111542699   -3.772123406686   -2.791421365898
