26

 N    2.292050046166    3.077201753835    0.316358394022
 C    3.566590046166    3.571771753835    0.021788394022
 H    3.639650046166    4.658041753835   -0.034541605978
 C    2.034330046166    1.754001753835    0.484708394022
 O    0.891620046166    1.307051753835    0.761388394022
 N    3.091120046166    0.915821753835    0.243758394022
 H    2.990930046166   -0.048348246165    0.565908394022
 C    4.455380046166    1.297851753835   -0.066381605978
 O    5.286540046166    0.419461753835   -0.198161605978
 C    4.623650046166    2.742751753835   -0.189851605978
 H    5.614710046166    3.135891753835   -0.414381605978
 H    1.526960046166    3.716161753835    0.515008394022
 K   -0.888269953834   -0.048388246165    1.849228394022
 K    1.034490046166    0.262731753835   -1.724371605978
 O   -0.942475199036   -1.381607154197   -0.804822419024
 C   -2.085180157223   -1.828548167166   -0.528136485951
 N   -2.342902670581   -3.151753646172   -0.359799627128
 H   -1.577819295212   -3.790717536515   -0.558449730756
 C   -3.617441887915   -3.646325947397   -0.065218157181
 H   -3.690504279649   -4.732595930696   -0.008899042316
 C   -4.674506983718   -2.817300600286    0.146428623050
 H   -5.665571178749   -3.210442789119    0.370962711968
 C   -4.506241385422   -1.372395550544    0.022961640984
 O   -5.337399517807   -0.494011680054    0.154751388441
 N   -3.141980074428   -0.990367949881   -0.287178765537
 H   -3.041791008451   -0.026197269396   -0.609326045600
