26

 N    2.329725557330    3.132431491206    0.348531092319
 C    3.604265557330    3.627001491206    0.053961092319
 H    3.677325557330    4.713271491206   -0.002368907681
 C    2.072005557330    1.809231491206    0.516881092319
 O    0.929295557330    1.362281491206    0.793561092319
 N    3.128795557330    0.971051491206    0.275931092319
 H    3.028605557330    0.006881491206    0.598081092319
 C    4.493055557330    1.353081491206   -0.034208907681
 O    5.324215557330    0.474691491206   -0.165988907681
 C    4.661325557330    2.797981491206   -0.157678907681
 H    5.652385557330    3.191121491206   -0.382208907681
 H    1.564635557330    3.771391491206    0.547181092319
 K   -0.850594442670    0.006841491206    1.881401092319
 K    1.072165557330    0.317961491206   -1.692198907681
 O   -1.006358212392   -1.475255307629   -0.859374802032
 C   -2.149063170579   -1.922196320599   -0.582688868959
 N   -2.406785683937   -3.245401799604   -0.414352010136
 H   -1.641702308568   -3.884365689947   -0.613002113763
 C   -3.681324901272   -3.739974100829   -0.119770540188
 H   -3.754387293005   -4.826244084128   -0.063451425324
 C   -4.738389997074   -2.910948753718    0.091876240043
 H   -5.729454192105   -3.304090942551    0.316410328960
 C   -4.570124398778   -1.466043703976   -0.031590742024
 O   -5.401282531163   -0.587659833487    0.100199005434
 N   -3.205863087784   -1.084016103313   -0.341731148544
 H   -3.105674021807   -0.119845422829   -0.663878428608
