26

 N    2.386238824076    3.215276097262    0.396790139764
 C    3.660778824076    3.709846097262    0.102220139764
 H    3.733838824076    4.796116097262    0.045890139764
 C    2.128518824076    1.892076097262    0.565140139764
 O    0.985808824076    1.445126097262    0.841820139764
 N    3.185308824076    1.053896097262    0.324190139764
 H    3.085118824076    0.089726097262    0.646340139764
 C    4.549568824076    1.435926097262    0.014050139764
 O    5.380728824076    0.557536097262   -0.117729860236
 C    4.717838824076    2.880826097262   -0.109419860236
 H    5.708898824076    3.273966097262   -0.333949860236
 H    1.621148824076    3.854236097262    0.595440139764
 K   -0.794081175924    0.089686097262    1.929660139764
 K    1.128678824076    0.400806097262   -1.643939860236
 O   -1.102182732427   -1.615727537777   -0.941203376543
 C   -2.244887690614   -2.062668550747   -0.664517443470
 N   -2.502610203971   -3.385874029752   -0.496180584647
 H   -1.737526828602   -4.024837920096   -0.694830688275
 C   -3.777149421306   -3.880446330978   -0.201599114699
 H   -3.850211813039   -4.966716314276   -0.145279999835
 C   -4.834214517108   -3.051420983866    0.010047665531
 H   -5.825278712140   -3.444563172700    0.234581754449
 C   -4.665948918813   -1.606515934124   -0.113419316535
 O   -5.497107051197   -0.728132063635    0.018370430923
 N   -3.301687607818   -1.224488333462   -0.423559723055
 H   -3.201498541842   -0.260317652977   -0.745707003119
