26

 N    2.423914335240    3.270505834633    0.428962838062
 C    3.698454335240    3.765075834633    0.134392838062
 H    3.771514335240    4.851345834633    0.078062838062
 C    2.166194335240    1.947305834633    0.597312838062
 O    1.023484335240    1.500355834633    0.873992838062
 N    3.222984335240    1.109125834633    0.356362838062
 H    3.122794335240    0.144955834633    0.678512838062
 C    4.587244335240    1.491155834633    0.046222838062
 O    5.418404335240    0.612765834633   -0.085557161938
 C    4.755514335240    2.936055834633   -0.077247161938
 H    5.746574335240    3.329195834633   -0.301777161938
 H    1.658824335240    3.909465834633    0.627612838062
 K   -0.756405664760    0.144915834633    1.961832838062
 K    1.166354335240    0.456035834633   -1.611767161938
 O   -1.166065745783   -1.709375691209   -0.995755759551
 C   -2.308770703970   -2.156316704179   -0.719069826477
 N   -2.566493217327   -3.479522183185   -0.550732967654
 H   -1.801409841958   -4.118486073528   -0.749383071282
 C   -3.841032434662   -3.974094484410   -0.256151497707
 H   -3.914094826395   -5.060364467708   -0.199832382842
 C   -4.898097530465   -3.145069137298   -0.044504717476
 H   -5.889161725496   -3.538211326132    0.180029371442
 C   -4.729831932169   -1.700164087556   -0.167971699542
 O   -5.560990064553   -0.821780217067   -0.036181952085
 N   -3.365570621175   -1.318136486894   -0.478112106063
 H   -3.265381555198   -0.353965806409   -0.800259386126
