26

 N    2.442752090822    3.298120703319    0.445049187210
 C    3.717292090822    3.792690703319    0.150479187210
 H    3.790352090822    4.878960703319    0.094149187210
 C    2.185032090822    1.974920703319    0.613399187210
 O    1.042322090822    1.527970703319    0.890079187210
 N    3.241822090822    1.136740703319    0.372449187210
 H    3.141632090822    0.172570703319    0.694599187210
 C    4.606082090822    1.518770703319    0.062309187210
 O    5.437242090822    0.640380703319   -0.069470812790
 C    4.774352090822    2.963670703319   -0.061160812790
 H    5.765412090822    3.356810703319   -0.285690812790
 H    1.677662090822    3.937080703319    0.643699187210
 K   -0.737567909178    0.172530703319    1.977919187210
 K    1.185192090822    0.483650703319   -1.595680812790
 O   -1.198007252461   -1.756199767925   -1.023031951054
 C   -2.340712210648   -2.203140780895   -0.746346017981
 N   -2.598434724005   -3.526346259901   -0.578009159158
 H   -1.833351348636   -4.165310150244   -0.776659262786
 C   -3.872973941340   -4.020918561126   -0.283427689211
 H   -3.946036333074   -5.107188544425   -0.227108574346
 C   -4.930039037143   -3.191893214014   -0.071780908980
 H   -5.921103232174   -3.585035402848    0.152753179938
 C   -4.761773438847   -1.746988164273   -0.195247891046
 O   -5.592931571232   -0.868604293783   -0.063458143589
 N   -3.397512127853   -1.364960563610   -0.505388297566
 H   -3.297323061876   -0.400789883125   -0.827535577630
