26

 N    2.574616379896    3.491424784117    0.557653631250
 C    3.849156379896    3.985994784117    0.263083631250
 H    3.922216379896    5.072264784117    0.206753631250
 C    2.316896379896    2.168224784117    0.726003631250
 O    1.174186379896    1.721274784117    1.002683631250
 N    3.373686379896    1.330044784117    0.485053631250
 H    3.273496379896    0.365874784117    0.807203631250
 C    4.737946379896    1.712074784117    0.174913631250
 O    5.569106379896    0.833684784117    0.043133631250
 C    4.906216379896    3.156974784117    0.051443631250
 H    5.897276379896    3.550114784117   -0.173086368750
 H    1.809526379896    4.130384784117    0.756303631250
 K   -0.605703620104    0.365834784117    2.090523631250
 K    1.317056379896    0.676954784117   -1.483076368750
 O   -1.421597799208   -2.083968304938   -1.213965291580
 C   -2.564302757395   -2.530909317908   -0.937279358507
 N   -2.822025270752   -3.854114796914   -0.768942499684
 H   -2.056941895383   -4.493078687257   -0.967592603312
 C   -4.096564488087   -4.348687098139   -0.474361029737
 H   -4.169626879820   -5.434957081437   -0.418041914872
 C   -5.153629583889   -3.519661751027   -0.262714249506
 H   -6.144693778921   -3.912803939861   -0.038180160588
 C   -4.985363985593   -2.074756701285   -0.386181231572
 O   -5.816522117978   -1.196372830796   -0.254391484115
 N   -3.621102674599   -1.692729100623   -0.696321638093
 H   -3.520913608623   -0.728558420138   -1.018468918156
