26

 N    2.612291891060    3.546654521488    0.589826329547
 C    3.886831891060    4.041224521488    0.295256329547
 H    3.959891891060    5.127494521488    0.238926329547
 C    2.354571891060    2.223454521488    0.758176329547
 O    1.211861891060    1.776504521488    1.034856329547
 N    3.411361891060    1.385274521488    0.517226329547
 H    3.311171891060    0.421104521488    0.839376329547
 C    4.775621891060    1.767304521488    0.207086329547
 O    5.606781891060    0.888914521488    0.075306329547
 C    4.943891891060    3.212204521488    0.083616329547
 H    5.934951891060    3.605344521488   -0.140913670453
 H    1.847201891060    4.185614521488    0.788476329547
 K   -0.568028108940    0.421064521488    2.122696329547
 K    1.354731891060    0.732184521488   -1.450903670453
 O   -1.485480812564   -2.177616458370   -1.268517674588
 C   -2.628185770751   -2.624557471340   -0.991831741515
 N   -2.885908284108   -3.947762950346   -0.823494882692
 H   -2.120824908739   -4.586726840689   -1.022144986319
 C   -4.160447501443   -4.442335251571   -0.528913412744
 H   -4.233509893176   -5.528605234870   -0.472594297880
 C   -5.217512597246   -3.613309904460   -0.317266632513
 H   -6.208576792277   -4.006452093293   -0.092732543596
 C   -5.049246998950   -2.168404854718   -0.440733614580
 O   -5.880405131334   -1.290020984228   -0.308943867122
 N   -3.684985687955   -1.786377254055   -0.750874021100
 H   -3.584796621979   -0.822206573570   -1.073021301164
