26

 N    2.687642913388    3.657113996230    0.654171726142
 C    3.962182913388    4.151683996230    0.359601726142
 H    4.035242913388    5.237953996230    0.303271726142
 C    2.429922913388    2.333913996230    0.822521726142
 O    1.287212913388    1.886963996230    1.099201726142
 N    3.486712913388    1.495733996230    0.581571726142
 H    3.386522913388    0.531563996230    0.903721726142
 C    4.850972913388    1.877763996230    0.271431726142
 O    5.682132913388    0.999373996230    0.139651726142
 C    5.019242913388    3.322663996230    0.147961726142
 H    6.010302913388    3.715803996230   -0.076568273858
 H    1.922552913388    4.296073996230    0.852821726142
 K   -0.492677086612    0.531523996230    2.187041726142
 K    1.430082913388    0.842643996230   -1.386558273858
 O   -1.613246839276   -2.364912765235   -1.377622440603
 C   -2.755951797463   -2.811853778205   -1.100936507530
 N   -3.013674310821   -4.135059257210   -0.932599648707
 H   -2.248590935451   -4.774023147553   -1.131249752334
 C   -4.288213528155   -4.629631558436   -0.638018178759
 H   -4.361275919889   -5.715901541734   -0.581699063895
 C   -5.345278623958   -3.800606211324   -0.426371398528
 H   -6.336342818989   -4.193748400158   -0.201837309610
 C   -5.177013025662   -2.355701161582   -0.549838380595
 O   -6.008171158047   -1.477317291093   -0.418048633137
 N   -3.812751714668   -1.973673560920   -0.859978787115
 H   -3.712562648691   -1.009502880435   -1.182126067178
