26

 N    2.781831691298    3.795188339657    0.734603471884
 C    4.056371691298    4.289758339657    0.440033471884
 H    4.129431691298    5.376028339657    0.383703471884
 C    2.524111691298    2.471988339657    0.902953471884
 O    1.381401691298    2.025038339657    1.179633471884
 N    3.580901691298    1.633808339657    0.662003471884
 H    3.480711691298    0.669638339657    0.984153471884
 C    4.945161691298    2.015838339657    0.351863471884
 O    5.776321691298    1.137448339657    0.220083471884
 C    5.113431691298    3.460738339657    0.228393471884
 H    6.104491691298    3.853878339657    0.003863471884
 H    2.016741691298    4.434148339657    0.933253471884
 K   -0.398488308702    0.669598339657    2.267473471884
 K    1.524271691298    0.980718339657   -1.306126528116
 O   -1.772954372667   -2.599033148815   -1.514003398121
 C   -2.915659330854   -3.045974161785   -1.237317465048
 N   -3.173381844211   -4.369179640791   -1.068980606225
 H   -2.408298468842   -5.008143531134   -1.267630709853
 C   -4.447921061546   -4.863751942016   -0.774399136278
 H   -4.520983453279   -5.950021925315   -0.718080021413
 C   -5.504986157348   -4.034726594905   -0.562752356047
 H   -6.496050352380   -4.427868783738   -0.338218267129
 C   -5.336720559052   -2.589821545163   -0.686219338113
 O   -6.167878691437   -1.711437674673   -0.554429590656
 N   -3.972459248058   -2.207793944500   -0.996359744634
 H   -3.872270182082   -1.243623264015   -1.318507024697
