26

 N    2.876020469208    3.933262683084    0.815035217627
 C    4.150560469208    4.427832683084    0.520465217627
 H    4.223620469208    5.514102683084    0.464135217627
 C    2.618300469208    2.610062683084    0.983385217627
 O    1.475590469208    2.163112683084    1.260065217627
 N    3.675090469208    1.771882683084    0.742435217627
 H    3.574900469208    0.807712683084    1.064585217627
 C    5.039350469208    2.153912683084    0.432295217627
 O    5.870510469208    1.275522683084    0.300515217627
 C    5.207620469208    3.598812683084    0.308825217627
 H    6.198680469208    3.991952683084    0.084295217627
 H    2.110930469208    4.572222683084    1.013685217627
 K   -0.304299530792    0.807672683084    2.347905217627
 K    1.618460469208    1.118792683084   -1.225694782373
 O   -1.932661906057   -2.833153532396   -1.650384355640
 C   -3.075366864244   -3.280094545366   -1.373698422567
 N   -3.333089377601   -4.603300024371   -1.205361563744
 H   -2.568006002232   -5.242263914715   -1.404011667372
 C   -4.607628594936   -5.097872325597   -0.910780093796
 H   -4.680690986670   -6.184142308895   -0.854460978932
 C   -5.664693690739   -4.268846978485   -0.699133313566
 H   -6.655757885770   -4.661989167319   -0.474599224648
 C   -5.496428092443   -2.823941928743   -0.822600295632
 O   -6.327586224828   -1.945558058254   -0.690810548174
 N   -4.132166781449   -2.441914328081   -1.132740702152
 H   -4.031977715472   -1.477743647596   -1.454887982216
