26

 N    2.932533735954    4.016107289140    0.863294265073
 C    4.207073735954    4.510677289140    0.568724265073
 H    4.280133735954    5.596947289140    0.512394265073
 C    2.674813735954    2.692907289140    1.031644265073
 O    1.532103735954    2.245957289140    1.308324265073
 N    3.731603735954    1.854727289140    0.790694265073
 H    3.631413735954    0.890557289140    1.112844265073
 C    5.095863735954    2.236757289140    0.480554265073
 O    5.927023735954    1.358367289140    0.348774265073
 C    5.264133735954    3.681657289140    0.357084265073
 H    6.255193735954    4.074797289140    0.132554265073
 H    2.167443735954    4.655067289140    1.061944265073
 K   -0.247786264046    0.890517289140    2.396164265073
 K    1.674973735954    1.201637289140   -1.177435734927
 O   -2.028486426091   -2.973625762544   -1.732212930151
 C   -3.171191384278   -3.420566775514   -1.455526997078
 N   -3.428913897636   -4.743772254520   -1.287190138255
 H   -2.663830522267   -5.382736144863   -1.485840241883
 C   -4.703453114970   -5.238344555745   -0.992608668308
 H   -4.776515506704   -6.324614539044   -0.936289553443
 C   -5.760518210773   -4.409319208633   -0.780961888077
 H   -6.751582405804   -4.802461397467   -0.556427799159
 C   -5.592252612477   -2.964414158892   -0.904428870143
 O   -6.423410744862   -2.086030288402   -0.772639122686
 N   -4.227991301483   -2.582386558229   -1.214569276663
 H   -4.127802235506   -1.618215877744   -1.536716556727
