26

 N    3.045560269446    4.181796501253    0.959812359964
 C    4.320100269446    4.676366501253    0.665242359964
 H    4.393160269446    5.762636501253    0.608912359964
 C    2.787840269446    2.858596501253    1.128162359964
 O    1.645130269446    2.411646501253    1.404842359964
 N    3.844630269446    2.020416501253    0.887212359964
 H    3.744440269446    1.056246501253    1.209362359964
 C    5.208890269446    2.402446501253    0.577072359964
 O    6.040050269446    1.524056501253    0.445292359964
 C    5.377160269446    3.847346501253    0.453602359964
 H    6.368220269446    4.240486501253    0.229072359964
 H    2.280470269446    4.820756501253    1.158462359964
 K   -0.134759730554    1.056206501253    2.492682359964
 K    1.788000269446    1.367326501253   -1.080917640036
 O   -2.220135466160   -3.254570222841   -1.895870079174
 C   -3.362840424347   -3.701511235811   -1.619184146100
 N   -3.620562937704   -5.024716714816   -1.450847287278
 H   -2.855479562335   -5.663680605160   -1.649497390905
 C   -4.895102155039   -5.519289016042   -1.156265817330
 H   -4.968164546772   -6.605558999340   -1.099946702465
 C   -5.952167250842   -4.690263668930   -0.944619037099
 H   -6.943231445873   -5.083405857764   -0.720084948181
 C   -5.783901652546   -3.245358619188   -1.068086019165
 O   -6.615059784930   -2.366974748699   -0.936296271708
 N   -4.419640341552   -2.863331018526   -1.378226425686
 H   -4.319451275575   -1.899160338041   -1.700373705749
