26

 N    3.064398025028    4.209411369939    0.975898709113
 C    4.338938025028    4.703981369939    0.681328709113
 H    4.411998025028    5.790251369939    0.624998709113
 C    2.806678025028    2.886211369939    1.144248709113
 O    1.663968025028    2.439261369939    1.420928709113
 N    3.863468025028    2.048031369939    0.903298709113
 H    3.763278025028    1.083861369939    1.225448709113
 C    5.227728025028    2.430061369939    0.593158709113
 O    6.058888025028    1.551671369939    0.461378709113
 C    5.395998025028    3.874961369939    0.469688709113
 H    6.387058025028    4.268101369939    0.245158709113
 H    2.299308025028    4.848371369939    1.174548709113
 K   -0.115921974972    1.083821369939    2.508768709113
 K    1.806838025028    1.394941369939   -1.064831290887
 O   -2.252076972838   -3.301394299557   -1.923146270677
 C   -3.394781931025   -3.748335312527   -1.646460337604
 N   -3.652504444382   -5.071540791533   -1.478123478781
 H   -2.887421069013   -5.710504681876   -1.676773582409
 C   -4.927043661717   -5.566113092758   -1.183542008834
 H   -5.000106053451   -6.652383076056   -1.127222893969
 C   -5.984108757520   -4.737087745646   -0.971895228603
 H   -6.975172952551   -5.130229934480   -0.747361139685
 C   -5.815843159224   -3.292182695904   -1.095362210669
 O   -6.647001291608   -2.413798825415   -0.963572463212
 N   -4.451581848230   -2.910155095242   -1.405502617189
 H   -4.351392782253   -1.945984414757   -1.727649897253
