26

 N    3.083235780610    4.237026238624    0.991985058262
 C    4.357775780610    4.731596238624    0.697415058262
 H    4.430835780610    5.817866238624    0.641085058262
 C    2.825515780610    2.913826238624    1.160335058262
 O    1.682805780610    2.466876238624    1.437015058262
 N    3.882305780610    2.075646238624    0.919385058262
 H    3.782115780610    1.111476238624    1.241535058262
 C    5.246565780610    2.457676238624    0.609245058262
 O    6.077725780610    1.579286238624    0.477465058262
 C    5.414835780610    3.902576238624    0.485775058262
 H    6.405895780610    4.295716238624    0.261245058262
 H    2.318145780610    4.875986238624    1.190635058262
 K   -0.097084219390    1.111436238624    2.524855058262
 K    1.825675780610    1.422556238624   -1.048744941738
 O   -2.284018479516   -3.348218376273   -1.950422462181
 C   -3.426723437703   -3.795159389243   -1.673736529108
 N   -3.684445951060   -5.118364868249   -1.505399670285
 H   -2.919362575691   -5.757328758592   -1.704049773913
 C   -4.958985168395   -5.612937169474   -1.210818200337
 H   -5.032047560129   -6.699207152772   -1.154499085473
 C   -6.016050264198   -4.783911822362   -0.999171420107
 H   -7.007114459229   -5.177054011196   -0.774637331189
 C   -5.847784665902   -3.339006772620   -1.122638402173
 O   -6.678942798287   -2.460622902131   -0.990848654715
 N   -4.483523354908   -2.956979171958   -1.432778808693
 H   -4.383334288931   -1.992808491473   -1.754926088757
