26

 N    3.120911291774    4.292255975995    1.024157756559
 C    4.395451291774    4.786825975995    0.729587756559
 H    4.468511291774    5.873095975995    0.673257756559
 C    2.863191291774    2.969055975995    1.192507756559
 O    1.720481291774    2.522105975995    1.469187756559
 N    3.919981291774    2.130875975995    0.951557756559
 H    3.819791291774    1.166705975995    1.273707756559
 C    5.284241291774    2.512905975995    0.641417756559
 O    6.115401291774    1.634515975995    0.509637756559
 C    5.452511291774    3.957805975995    0.517947756559
 H    6.443571291774    4.350945975995    0.293417756559
 H    2.355821291774    4.931215975995    1.222807756559
 K   -0.059408708226    1.166665975995    2.557027756559
 K    1.863351291774    1.477785975995   -1.016572243441
 O   -2.347901492872   -3.441866529706   -2.004974845189
 C   -3.490606451059   -3.888807542675   -1.728288912115
 N   -3.748328964417   -5.212013021681   -1.559952053292
 H   -2.983245589047   -5.850976912024   -1.758602156920
 C   -5.022868181751   -5.706585322906   -1.265370583345
 H   -5.095930573485   -6.792855306205   -1.209051468480
 C   -6.079933277554   -4.877559975795   -1.053723803114
 H   -7.070997472585   -5.270702164628   -0.829189714196
 C   -5.911667679258   -3.432654926053   -1.177190785180
 O   -6.742825811643   -2.554271055563   -1.045401037723
 N   -4.547406368264   -3.050627325390   -1.487331191701
 H   -4.447217302287   -2.086456644905   -1.809478471764
