26

 N    3.158586802938    4.347485713366    1.056330454856
 C    4.433126802938    4.842055713366    0.761760454856
 H    4.506186802938    5.928325713366    0.705430454856
 C    2.900866802938    3.024285713366    1.224680454856
 O    1.758156802938    2.577335713366    1.501360454856
 N    3.957656802938    2.186105713366    0.983730454856
 H    3.857466802938    1.221935713366    1.305880454856
 C    5.321916802938    2.568135713366    0.673590454856
 O    6.153076802938    1.689745713366    0.541810454856
 C    5.490186802938    4.013035713366    0.550120454856
 H    6.481246802938    4.406175713366    0.325590454856
 H    2.393496802938    4.986445713366    1.254980454856
 K   -0.021733197062    1.221895713366    2.589200454856
 K    1.901026802938    1.533015713366   -0.984399545144
 O   -2.411784506228   -3.535514683138   -2.059527228196
 C   -3.554489464415   -3.982455696108   -1.782841295123
 N   -3.812211977773   -5.305661175113   -1.614504436300
 H   -3.047128602404   -5.944625065456   -1.813154539927
 C   -5.086751195107   -5.800233476339   -1.319922966352
 H   -5.159813586841   -6.886503459637   -1.263603851488
 C   -6.143816290910   -4.971208129227   -1.108276186122
 H   -7.134880485941   -5.364350318060   -0.883742097204
 C   -5.975550692614   -3.526303079485   -1.231743168188
 O   -6.806708824999   -2.647919208996   -1.099953420730
 N   -4.611289381620   -3.144275478822   -1.541883574708
 H   -4.511100315643   -2.180104798338   -1.864030854772
