26

 N    3.346964358758    4.623634400221    1.217193946342
 C    4.621504358758    5.118204400221    0.922623946342
 H    4.694564358758    6.204474400221    0.866293946342
 C    3.089244358758    3.300434400221    1.385543946342
 O    1.946534358758    2.853484400221    1.662223946342
 N    4.146034358758    2.462254400221    1.144593946342
 H    4.045844358758    1.498084400221    1.466743946342
 C    5.510294358758    2.844284400221    0.834453946342
 O    6.341454358758    1.965894400221    0.702673946342
 C    5.678564358758    4.289184400221    0.710983946342
 H    6.669624358758    4.682324400221    0.486453946342
 H    2.581874358758    5.262594400221    1.415843946342
 K    0.166644358758    1.498044400221    2.750063946342
 K    2.089404358758    1.809164400221   -0.823536053658
 O   -2.731199573009   -4.003755450299   -2.332289143233
 C   -3.873904531196   -4.450696463269   -2.055603210160
 N   -4.131627044554   -5.773901942274   -1.887266351337
 H   -3.366543669185   -6.412865832617   -2.085916454965
 C   -5.406166261888   -6.268474243500   -1.592684881390
 H   -5.479228653622   -7.354744226798   -1.536365766525
 C   -6.463231357691   -5.439448896388   -1.381038101159
 H   -7.454295552722   -5.832591085222   -1.156504012241
 C   -6.294965759395   -3.994543846646   -1.504505083225
 O   -7.126123891780   -3.116159976157   -1.372715335768
 N   -4.930704448401   -3.612516245984   -1.814645489745
 H   -4.830515382424   -2.648345565499   -2.136792769809
