26

 N    3.403477625504    4.706479006277    1.265452993787
 C    4.678017625504    5.201049006277    0.970882993787
 H    4.751077625504    6.287319006277    0.914552993787
 C    3.145757625504    3.383279006277    1.433802993787
 O    2.003047625504    2.936329006277    1.710482993787
 N    4.202547625504    2.545099006277    1.192852993787
 H    4.102357625504    1.580929006277    1.515002993787
 C    5.566807625504    2.927129006277    0.882712993787
 O    6.397967625504    2.048739006277    0.750932993787
 C    5.735077625504    4.372029006277    0.759242993787
 H    6.726137625504    4.765169006277    0.534712993787
 H    2.638387625504    5.345439006277    1.464102993787
 K    0.223157625504    1.580889006277    2.798322993787
 K    2.145917625504    1.892009006277   -0.775277006213
 O   -2.827024093044   -4.144227680447   -2.414117717744
 C   -3.969729051231   -4.591168693417   -2.137431784671
 N   -4.227451564588   -5.914374172423   -1.969094925848
 H   -3.462368189219   -6.553338062766   -2.167745029476
 C   -5.501990781923   -6.408946473648   -1.674513455901
 H   -5.575053173656   -7.495216456946   -1.618194341036
 C   -6.559055877725   -5.579921126536   -1.462866675670
 H   -7.550120072757   -5.973063315370   -1.238332586752
 C   -6.390790279429   -4.135016076794   -1.586333657736
 O   -7.221948411814   -3.256632206305   -1.454543910279
 N   -5.026528968435   -3.752988476132   -1.896474064257
 H   -4.926339902459   -2.788817795647   -2.218621344320
