26

 N    3.516504158996    4.872168218390    1.361971088679
 C    4.791044158996    5.366738218390    1.067401088679
 H    4.864104158996    6.453008218390    1.011071088679
 C    3.258784158996    3.548968218390    1.530321088679
 O    2.116074158996    3.102018218390    1.807001088679
 N    4.315574158996    2.710788218390    1.289371088679
 H    4.215384158996    1.746618218390    1.611521088679
 C    5.679834158996    3.092818218390    0.979231088679
 O    6.510994158996    2.214428218390    0.847451088679
 C    5.848104158996    4.537718218390    0.855761088679
 H    6.839164158996    4.930858218390    0.631231088679
 H    2.751414158996    5.511128218390    1.560621088679
 K    0.336184158996    1.746578218390    2.894841088679
 K    2.258944158996    2.057698218390   -0.678758911321
 O   -3.018673133112   -4.425172140744   -2.577774866767
 C   -4.161378091299   -4.872113153714   -2.301088933694
 N   -4.419100604657   -6.195318632719   -2.132752074871
 H   -3.654017229287   -6.834282523063   -2.331402178498
 C   -5.693639821991   -6.689890933945   -1.838170604923
 H   -5.766702213725   -7.776160917243   -1.781851490059
 C   -6.750704917794   -5.860865586833   -1.626523824692
 H   -7.741769112825   -6.254007775667   -1.401989735775
 C   -6.582439319498   -4.415960537091   -1.749990806759
 O   -7.413597451883   -3.537576666602   -1.618201059301
 N   -5.218178008504   -4.033932936429   -2.060131213279
 H   -5.117988942527   -3.069762255944   -2.382278493343
