26

 N    3.667206203652    5.093087167873    1.490661881867
 C    4.941746203652    5.587657167873    1.196091881867
 H    5.014806203652    6.673927167873    1.139761881867
 C    3.409486203652    3.769887167873    1.659011881867
 O    2.266776203652    3.322937167873    1.935691881867
 N    4.466276203652    2.931707167873    1.418061881867
 H    4.366086203652    1.967537167873    1.740211881867
 C    5.830536203652    3.313737167873    1.107921881867
 O    6.661696203652    2.435347167873    0.976141881867
 C    5.998806203652    4.758637167873    0.984451881867
 H    6.989866203652    5.151777167873    0.759921881867
 H    2.902116203652    5.732047167873    1.689311881867
 K    0.486886203652    1.967497167873    3.023531881867
 K    2.409646203652    2.278617167873   -0.550068118133
 O   -3.274205186537   -4.799764754473   -2.795984398797
 C   -4.416910144724   -5.246705767443   -2.519298465724
 N   -4.674632658081   -6.569911246448   -2.350961606901
 H   -3.909549282712   -7.208875136791   -2.549611710528
 C   -5.949171875416   -7.064483547674   -2.056380136953
 H   -6.022234267149   -8.150753530972   -2.000061022088
 C   -7.006236971219   -6.235458200562   -1.844733356722
 H   -7.997301166250   -6.628600389395   -1.620199267804
 C   -6.837971372923   -4.790553150820   -1.968200338788
 O   -7.669129505307   -3.912169280331   -1.836410591331
 N   -5.473710061929   -4.408525550157   -2.278340745309
 H   -5.373520995952   -3.444354869673   -2.600488025372
