26

 N    3.686043959234    5.120702036559    1.506748231016
 C    4.960583959234    5.615272036559    1.212178231016
 H    5.033643959234    6.701542036559    1.155848231016
 C    3.428323959234    3.797502036559    1.675098231016
 O    2.285613959234    3.350552036559    1.951778231016
 N    4.485113959234    2.959322036559    1.434148231016
 H    4.384923959234    1.995152036559    1.756298231016
 C    5.849373959234    3.341352036559    1.124008231016
 O    6.680533959234    2.462962036559    0.992228231016
 C    6.017643959234    4.786252036559    1.000538231016
 H    7.008703959234    5.179392036559    0.776008231016
 H    2.920953959234    5.759662036559    1.705398231016
 K    0.505723959234    1.995112036559    3.039618231016
 K    2.428483959234    2.306232036559   -0.533981768984
 O   -3.306146693215   -4.846588831189   -2.823260590300
 C   -4.448851651402   -5.293529844159   -2.546574657227
 N   -4.706574164759   -6.616735323164   -2.378237798404
 H   -3.941490789390   -7.255699213508   -2.576887902032
 C   -5.981113382094   -7.111307624390   -2.083656328457
 H   -6.054175773827   -8.197577607688   -2.027337213592
 C   -7.038178477897   -6.282282277278   -1.872009548226
 H   -8.029242672928   -6.675424466112   -1.647475459308
 C   -6.869912879601   -4.837377227536   -1.995476530292
 O   -7.701071011985   -3.958993357047   -1.863686782835
 N   -5.505651568607   -4.455349626874   -2.305616936813
 H   -5.405462502630   -3.491178946389   -2.627764216876
