26

 N    3.704881714816    5.148316905244    1.522834580164
 C    4.979421714816    5.642886905244    1.228264580164
 H    5.052481714816    6.729156905244    1.171934580164
 C    3.447161714816    3.825116905244    1.691184580164
 O    2.304451714816    3.378166905244    1.967864580164
 N    4.503951714816    2.986936905244    1.450234580164
 H    4.403761714816    2.022766905244    1.772384580164
 C    5.868211714816    3.368966905244    1.140094580164
 O    6.699371714816    2.490576905244    1.008314580164
 C    6.036481714816    4.813866905244    1.016624580164
 H    7.027541714816    5.207006905244    0.792094580164
 H    2.939791714816    5.787276905244    1.721484580164
 K    0.524561714816    2.022726905244    3.055704580164
 K    2.447321714816    2.333846905244   -0.517895419836
 O   -3.338088199893   -4.893412907905   -2.850536781804
 C   -4.480793158080   -5.340353920875   -2.573850848731
 N   -4.738515671437   -6.663559399880   -2.405513989908
 H   -3.973432296068   -7.302523290224   -2.604164093536
 C   -6.013054888772   -7.158131701106   -2.110932519960
 H   -6.086117280506   -8.244401684404   -2.054613405096
 C   -7.070119984575   -6.329106353994   -1.899285739730
 H   -8.061184179606   -6.722248542828   -1.674751650812
 C   -6.901854386279   -4.884201304252   -2.022752721796
 O   -7.733012518664   -4.005817433763   -1.890962974339
 N   -5.537593075285   -4.502173703590   -2.332893128316
 H   -5.437404009308   -3.538003023105   -2.655040408380
