26

 N    3.723719470398    5.175931773930    1.538920929313
 C    4.998259470398    5.670501773930    1.244350929313
 H    5.071319470398    6.756771773930    1.188020929313
 C    3.465999470398    3.852731773930    1.707270929313
 O    2.323289470398    3.405781773930    1.983950929313
 N    4.522789470398    3.014551773930    1.466320929313
 H    4.422599470398    2.050381773930    1.788470929313
 C    5.887049470398    3.396581773930    1.156180929313
 O    6.718209470398    2.518191773930    1.024400929313
 C    6.055319470398    4.841481773930    1.032710929313
 H    7.046379470398    5.234621773930    0.808180929313
 H    2.958629470398    5.814891773930    1.737570929313
 K    0.543399470398    2.050341773930    3.071790929313
 K    2.466159470398    2.361461773930   -0.501809070687
 O   -3.370029706571   -4.940236984621   -2.877812973308
 C   -4.512734664758   -5.387177997591   -2.601127040235
 N   -4.770457178116   -6.710383476597   -2.432790181412
 H   -4.005373802746   -7.349347366940   -2.631440285039
 C   -6.044996395450   -7.204955777822   -2.138208711464
 H   -6.118058787184   -8.291225761120   -2.081889596600
 C   -7.102061491253   -6.375930430710   -1.926561931233
 H   -8.093125686284   -6.769072619544   -1.702027842316
 C   -6.933795892957   -4.931025380968   -2.050028913300
 O   -7.764954025342   -4.052641510479   -1.918239165842
 N   -5.569534581963   -4.548997780306   -2.360169319820
 H   -5.469345515986   -3.584827099821   -2.682316599884
