26

 N    3.761394981562    5.231161511301    1.571093627610
 C    5.035934981562    5.725731511301    1.276523627610
 H    5.108994981562    6.812001511301    1.220193627610
 C    3.503674981562    3.907961511301    1.739443627610
 O    2.360964981562    3.461011511301    2.016123627610
 N    4.560464981562    3.069781511301    1.498493627610
 H    4.460274981562    2.105611511301    1.820643627610
 C    5.924724981562    3.451811511301    1.188353627610
 O    6.755884981562    2.573421511301    1.056573627610
 C    6.092994981562    4.896711511301    1.064883627610
 H    7.084054981562    5.289851511301    0.840353627610
 H    2.996304981562    5.870121511301    1.769743627610
 K    0.581074981562    2.105571511301    3.103963627610
 K    2.503834981562    2.416691511301   -0.469636372390
 O   -3.433912719927   -5.033885138053   -2.932365356315
 C   -4.576617678114   -5.480826151023   -2.655679423242
 N   -4.834340191472   -6.804031630029   -2.487342564419
 H   -4.069256816103   -7.442995520372   -2.685992668047
 C   -6.108879408806   -7.298603931254   -2.192761094472
 H   -6.181941800540   -8.384873914553   -2.136441979607
 C   -7.165944504609   -6.469578584142   -1.981114314241
 H   -8.157008699640   -6.862720772976   -1.756580225323
 C   -6.997678906313   -5.024673534401   -2.104581296307
 O   -7.828837038698   -4.146289663911   -1.972791548850
 N   -5.633417595319   -4.642645933738   -2.414721702827
 H   -5.533228529342   -3.678475253253   -2.736868982891
