6

 H   -0.526195283944    1.552087583063    2.693982655546
 H   -0.076138283944   -0.109837416937    3.150482655546
 H   -1.738105283944    0.248773583063    2.619256655546
 C   -0.673036283944    0.486284583063    2.433899655546
 S   -0.189867283944    0.137183583063    0.686616655546
CS    0.124190831459   -0.089730813650   -0.449111021635
