6

 H   -0.564864733789    1.580027172752    2.833822902611
 H   -0.114807733789   -0.081897827248    3.290322902611
 H   -1.776774733789    0.276713172752    2.759096902611
 C   -0.711705733789    0.514224172752    2.573739902611
 S   -0.228536733789    0.165123172752    0.826456902611
CS    0.137864400848   -0.099610290079   -0.498558720766
