6

 H   -0.642203633480    1.635906352130    3.113503396742
 H   -0.192146633480   -0.026018647870    3.570003396742
 H   -1.854113633480    0.332592352130    3.038777396742
 C   -0.789044633480    0.570103352130    2.853420396742
 S   -0.305875633480    0.221002352130    1.106137396742
CS    0.165211539625   -0.119369242939   -0.597454119029
