6

 H   -0.661538358402    1.649876146975    3.183423520274
 H   -0.211481358402   -0.012048853025    3.639923520274
 H   -1.873448358402    0.346562146975    3.108697520274
 C   -0.808379358402    0.584073146975    2.923340520274
 S   -0.325210358402    0.234972146975    1.176057520274
CS    0.172048324319   -0.124308981154   -0.622177968595
