6

 H   -2.227651077142    2.781429529383    8.846953526415
 H   -1.777594077142    1.119504529383    9.303453526415
 H   -3.439561077142    1.478115529383    8.772227526415
 C   -2.374492077142    1.715626529383    8.586870526415
 S   -1.891323077142    1.366525529383    6.839587526415
CS    0.725827884550   -0.524427776557   -2.624809783424
