6

 H   -0.700207808248    1.677815736664    3.323263767339
 H   -0.250150808248    0.015890736664    3.779763767339
 H   -1.912117808248    0.374501736664    3.248537767339
 C   -0.847048808248    0.612012736664    3.063180767339
 S   -0.363879808248    0.262911736664    1.315897767339
CS    0.185721893707   -0.134188457583   -0.671625667727
