6

 H   -0.719542533171    1.691785531508    3.393183890872
 H   -0.269485533171    0.029860531508    3.849683890872
 H   -1.931452533171    0.388471531508    3.318457890872
 C   -0.866383533171    0.625982531508    3.133100890872
 S   -0.383214533171    0.276881531508    1.385817890872
CS    0.192558678402   -0.139128195798   -0.696349517292
