6

 H   -0.777546707939    1.733694916042    3.602944261470
 H   -0.327489707939    0.071769916042    4.059444261470
 H   -1.989456707939    0.430380916042    3.528218261470
 C   -0.924387707939    0.667891916042    3.342861261470
 S   -0.441218707939    0.318790916042    1.595578261470
CS    0.213069032484   -0.153947410443   -0.770521065990
