6

 H   -0.854885607630    1.789574095420    3.882624755600
 H   -0.404828607630    0.127649095420    4.339124755600
 H   -2.066795607630    0.486260095420    3.807898755600
 C   -1.001726607630    0.723771095420    3.622541755600
 S   -0.518557607630    0.374670095420    1.875258755600
CS    0.240416171261   -0.173706363302   -0.869416464253
