6

 H   -0.874220332552    1.803543890265    3.952544879133
 H   -0.424163332552    0.141618890265    4.409044879133
 H   -2.086130332552    0.500229890265    3.877818879133
 C   -1.021061332552    0.737740890265    3.692461879133
 S   -0.537892332552    0.388639890265    1.945178879133
CS    0.247252955955   -0.178646101517   -0.894140313819
