6

 H   -0.951559232243    1.859423069643    4.232225373263
 H   -0.501502232243    0.197498069643    4.688725373263
 H   -2.163469232243    0.556109069643    4.157499373263
 C   -1.098400232243    0.793620069643    3.972142373263
 S   -0.615231232243    0.444519069643    2.224859373263
CS    0.274600094732   -0.198405054376   -0.993035712082
