6

 H   -0.990228682088    1.887362659332    4.372065620328
 H   -0.540171682088    0.225437659332    4.828565620328
 H   -2.202138682088    0.584048659332    4.297339620328
 C   -1.137069682088    0.821559659332    4.111982620328
 S   -0.653900682088    0.472458659332    2.364699620328
CS    0.288273664120   -0.208284530806   -1.042483411213
