6

 H   -1.125571756547    1.985151223244    4.861506485057
 H   -0.675514756547    0.323226223244    5.318006485057
 H   -2.337481756547    0.681837223244    4.786780485057
 C   -1.272412756547    0.919348223244    4.601423485057
 S   -0.789243756547    0.570247223244    2.854140485057
CS    0.336131156980   -0.242862698310   -1.215550358174
