6

 H   -1.164241206393    2.013090812933    5.001346732122
 H   -0.714184206393    0.351165812933    5.457846732122
 H   -2.376151206393    0.709776812933    4.926620732122
 C   -1.311082206393    0.947287812933    4.741263732122
 S   -0.827913206393    0.598186812933    2.993980732122
CS    0.349804726368   -0.252742174740   -1.264998057306
