6

 H   -1.260914831006    2.082939787156    5.350947349785
 H   -0.810857831006    0.421014787156    5.807447349785
 H   -2.472824831006    0.779625787156    5.276221349785
 C   -1.407755831006    1.017136787156    5.090864349785
 S   -0.924586831006    0.668035787156    3.343581349785
CS    0.383988649839   -0.277440865814   -1.388617305134
