6

 H   -1.299584280852    2.110879376845    5.490787596850
 H   -0.849527280852    0.448954376845    5.947287596850
 H   -2.511494280852    0.807565376845    5.416061596850
 C   -1.446425280852    1.045076376845    5.230704596850
 S   -0.963256280852    0.695975376845    3.483421596850
CS    0.397662219228   -0.287320342244   -1.438065004266
