6

 H   -1.318919005774    2.124849171689    5.560707720382
 H   -0.868862005774    0.462924171689    6.017207720382
 H   -2.530829005774    0.821535171689    5.485981720382
 C   -1.465760005774    1.059046171689    5.300624720382
 S   -0.982591005774    0.709945171689    3.553341720382
CS    0.404499003922   -0.292260080459   -1.462788853832
