6

 H   -1.338253730697    2.138818966534    5.630627843915
 H   -0.888196730697    0.476893966534    6.087127843915
 H   -2.550163730697    0.835504966534    5.555901843915
 C   -1.485094730697    1.073015966534    5.370544843915
 S   -1.001925730697    0.723914966534    3.623261843915
CS    0.411335788616   -0.297199818674   -1.487512703398
