6

 H   -1.357588455620    2.152788761378    5.700547967448
 H   -0.907531455620    0.490863761378    6.157047967448
 H   -2.569498455620    0.849474761378    5.625821967448
 C   -1.504429455620    1.086985761378    5.440464967448
 S   -1.021260455620    0.737884761378    3.693181967448
CS    0.418172573310   -0.302139556888   -1.512236552963
