6

 H   -1.376923180543    2.166758556223    5.770468090980
 H   -0.926866180543    0.504833556223    6.226968090980
 H   -2.588833180543    0.863444556223    5.695742090980
 C   -1.523764180543    1.100955556223    5.510385090980
 S   -1.040595180543    0.751854556223    3.763102090980
CS    0.425009358005   -0.307079295103   -1.536960402529
