6

 H   -1.434927355311    2.208667940756    5.980228461578
 H   -0.984870355311    0.546742940756    6.436728461578
 H   -2.646837355311    0.905353940756    5.905502461578
 C   -1.581768355311    1.142864940756    5.720145461578
 S   -1.098599355311    0.793763940756    3.972862461578
CS    0.445519712087   -0.321898509748   -1.611131951226
