6

 H   -1.454262080233    2.222637735601    6.050148585111
 H   -1.004205080233    0.560712735601    6.506648585111
 H   -2.666172080233    0.919323735601    5.975422585111
 C   -1.601103080233    1.156834735601    5.790065585111
 S   -1.117934080233    0.807733735601    4.042782585111
CS    0.452356496781   -0.326838247963   -1.635855800792
