6

 H   -1.473596805156    2.236607530446    6.120068708643
 H   -1.023539805156    0.574682530446    6.576568708643
 H   -2.685506805156    0.933293530446    6.045342708643
 C   -1.620437805156    1.170804530446    5.859985708643
 S   -1.137268805156    0.821703530446    4.112702708643
CS    0.459193281476   -0.331777986178   -1.660579650358
