6

 H   -1.492931530079    2.250577325290    6.189988832176
 H   -1.042874530079    0.588652325290    6.646488832176
 H   -2.704841530079    0.947263325290    6.115262832176
 C   -1.639772530079    1.184774325290    5.929905832176
 S   -1.156603530079    0.835673325290    4.182622832176
CS    0.466030066170   -0.336717724392   -1.685303499924
