6

 H   -1.550935704847    2.292486709824    6.399749202774
 H   -1.100878704847    0.630561709824    6.856249202774
 H   -2.762845704847    0.989172709824    6.325023202774
 C   -1.697776704847    1.226683709824    6.139666202774
 S   -1.214607704847    0.877582709824    4.392383202774
CS    0.486540420253   -0.351536939037   -1.759475048621
