6

 H   -1.628274604538    2.348365889202    6.679429696904
 H   -1.178217604538    0.686440889202    7.135929696904
 H   -2.840184604538    1.045051889202    6.604703696904
 C   -1.775115604538    1.282562889202    6.419346696904
 S   -1.291946604538    0.933461889202    4.672063696904
CS    0.513887559029   -0.371295891896   -1.858370446884
