6

 H   -1.666944054383    2.376305478891    6.819269943969
 H   -1.216887054383    0.714380478891    7.275769943969
 H   -2.878854054383    1.072991478891    6.744543943969
 C   -1.813785054383    1.310502478891    6.559186943969
 S   -1.330616054383    0.961401478891    4.811903943969
CS    0.527561128418   -0.381175368326   -1.907818146016
