6

 H   -1.821621853765    2.488063837647    7.378630932230
 H   -1.371564853765    0.826138837647    7.835130932230
 H   -3.033531853765    1.184749837647    7.303904932230
 C   -1.968462853765    1.422260837647    7.118547932230
 S   -1.485293853765    1.073159837647    5.371264932230
CS    0.582255405971   -0.420693274045   -2.105608942542
