6

 H   -1.840956578688    2.502033632492    7.448551055763
 H   -1.390899578688    0.840108632492    7.905051055763
 H   -3.052866578688    1.198719632492    7.373825055763
 C   -1.987797578688    1.436230632492    7.188468055763
 S   -1.504628578688    1.087129632492    5.441185055763
CS    0.589092190666   -0.425633012260   -2.130332792108
