6

 H   -1.860291303610    2.516003427336    7.518471179295
 H   -1.410234303610    0.854078427336    7.974971179295
 H   -3.072201303610    1.212689427336    7.443745179295
 C   -2.007132303610    1.450200427336    7.258388179295
 S   -1.523963303610    1.101099427336    5.511105179295
CS    0.595928975360   -0.430572750475   -2.155056641674
