6

 H   -1.898960753456    2.543943017025    7.658311426360
 H   -1.448903753456    0.882018017025    8.114811426360
 H   -3.110870753456    1.240629017025    7.583585426360
 C   -2.045801753456    1.478140017025    7.398228426360
 S   -1.562632753456    1.129039017025    5.650945426360
CS    0.609602544748   -0.440452226904   -2.204504340805
