6

 H   -1.937630203301    2.571882606715    7.798151673426
 H   -1.487573203301    0.909957606715    8.254651673426
 H   -3.149540203301    1.268568606715    7.723425673426
 C   -2.084471203301    1.506079606715    7.538068673426
 S   -1.601302203301    1.156978606715    5.790785673426
CS    0.623276114137   -0.450331703334   -2.253952039937
