6

 H   -1.976299653147    2.599822196404    7.937991920491
 H   -1.526242653147    0.937897196404    8.394491920491
 H   -3.188209653147    1.296508196404    7.863265920491
 C   -2.123140653147    1.534019196404    7.677908920491
 S   -1.639971653147    1.184918196404    5.930625920491
CS    0.636949683525   -0.460211179764   -2.303399739068
