6

 H   -1.995634378069    2.613791991248    8.007912044023
 H   -1.545577378069    0.951866991248    8.464412044023
 H   -3.207544378069    1.310477991248    7.933186044023
 C   -2.142475378069    1.547988991248    7.747829044023
 S   -1.659306378069    1.198887991248    6.000546044023
CS    0.643786468219   -0.465150917979   -2.328123588634
