6

 H   -2.034303827915    2.641731580937    8.147752291089
 H   -1.584246827915    0.979806580937    8.604252291089
 H   -3.246213827915    1.338417580937    8.073026291089
 C   -2.181144827915    1.575928580937    7.887669291089
 S   -1.697975827915    1.226827580937    6.140386291089
CS    0.657460037608   -0.475030394408   -2.377571287766
