6

 H   -2.072973277760    2.669671170626    8.287592538154
 H   -1.622916277760    1.007746170626    8.744092538154
 H   -3.284883277760    1.366357170626    8.212866538154
 C   -2.219814277760    1.603868170626    8.027509538154
 S   -1.736645277760    1.254767170626    6.280226538154
CS    0.671133606996   -0.484909870838   -2.427018986897
