6

 H   -2.092308002683    2.683640965471    8.357512661686
 H   -1.642251002683    1.021715965471    8.814012661686
 H   -3.304218002683    1.380326965471    8.282786661686
 C   -2.239149002683    1.617837965471    8.097429661686
 S   -1.755980002683    1.268736965471    6.350146661686
CS    0.677970391690   -0.489849609053   -2.451742836463
