8

 C    2.408173424374   -0.715853665314    0.000000000000
 H    3.443673424374   -1.091941665314    0.000000000000
 H    1.874973424374   -1.096556665314    0.888337000000
 H    1.874973424374   -1.096556665314   -0.888337000000
 C    2.366407424374    0.840230334686    0.000000000000
 O    1.199211424374    1.346453334686    0.000000000000
 O    3.490478424374    1.435648334686    0.000000000000
CS   -1.050040216052   -0.321139858525    0.000000000000
