8

 C    2.519432484351   -0.633366295841    0.000000000000
 H    3.554932484351   -1.009454295841    0.000000000000
 H    1.986232484351   -1.014069295841    0.888337000000
 H    1.986232484351   -1.014069295841   -0.888337000000
 C    2.477666484351    0.922717704159    0.000000000000
 O    1.310470484351    1.428940704159    0.000000000000
 O    3.601737484351    1.518135704159    0.000000000000
CS   -1.099441987534   -0.357766288567    0.000000000000
