8

 C    3.020098254246   -0.262173133215    0.000000000000
 H    4.055598254246   -0.638261133215    0.000000000000
 H    2.486898254246   -0.642876133215    0.888337000000
 H    2.486898254246   -0.642876133215   -0.888337000000
 C    2.978332254246    1.293910866785    0.000000000000
 O    1.811136254246    1.800133866785    0.000000000000
 O    4.102403254246    1.889328866785    0.000000000000
CS   -1.321749959204   -0.522585223759    0.000000000000
