8

 C    3.520764024141    0.109020029411    0.000000000000
 H    4.556264024141   -0.267067970589    0.000000000000
 H    2.987564024141   -0.271682970589    0.888337000000
 H    2.987564024141   -0.271682970589   -0.888337000000
 C    3.478998024141    1.665104029411    0.000000000000
 O    2.311802024141    2.171327029411    0.000000000000
 O    4.603069024141    2.260522029411    0.000000000000
CS   -1.544057930874   -0.687404158951    0.000000000000
