8

 C    3.854541204071    0.356482137828    0.000000000000
 H    4.890041204071   -0.019605862172    0.000000000000
 H    3.321341204071   -0.024220862172    0.888337000000
 H    3.321341204071   -0.024220862172   -0.888337000000
 C    3.812775204071    1.912566137828    0.000000000000
 O    2.645579204071    2.418789137828    0.000000000000
 O    4.936846204071    2.507984137828    0.000000000000
CS   -1.692263245321   -0.797283449079    0.000000000000
