8

 C    3.910170734059    0.397725822564    0.000000000000
 H    4.945670734059    0.021637822564    0.000000000000
 H    3.376970734059    0.017022822564    0.888337000000
 H    3.376970734059    0.017022822564   -0.888337000000
 C    3.868404734059    1.953809822564    0.000000000000
 O    2.701208734059    2.460032822564    0.000000000000
 O    4.992475734059    2.549227822564    0.000000000000
CS   -1.716964131062   -0.815596664100    0.000000000000
