8

 C    4.243947913989    0.645187930981    0.000000000000
 H    5.279447913989    0.269099930981    0.000000000000
 H    3.710747913989    0.264484930981    0.888337000000
 H    3.710747913989    0.264484930981   -0.888337000000
 C    4.202181913989    2.201271930981    0.000000000000
 O    3.034985913989    2.707494930981    0.000000000000
 O    5.326252913989    2.796689930981    0.000000000000
CS   -1.865169445509   -0.925475954228    0.000000000000
