8

 C    5.022761333826    1.222599517288    0.000000000000
 H    6.058261333826    0.846511517288    0.000000000000
 H    4.489561333826    0.841896517288    0.888337000000
 H    4.489561333826    0.841896517288   -0.888337000000
 C    4.980995333826    2.778683517288    0.000000000000
 O    3.813799333826    3.284906517288    0.000000000000
 O    6.105066333826    3.374101517288    0.000000000000
CS   -2.210981845885   -1.181860964527    0.000000000000
