8

 C    5.134020393803    1.305086886761    0.000000000000
 H    6.169520393803    0.928998886761    0.000000000000
 H    4.600820393803    0.924383886761    0.888337000000
 H    4.600820393803    0.924383886761   -0.888337000000
 C    5.092254393803    2.861170886761    0.000000000000
 O    3.925058393803    3.367393886761    0.000000000000
 O    6.216325393803    3.456588886761    0.000000000000
CS   -2.260383617367   -1.218487394570    0.000000000000
