8

 C    5.412168043745    1.511305310442    0.000000000000
 H    6.447668043745    1.135217310442    0.000000000000
 H    4.878968043745    1.130602310442    0.888337000000
 H    4.878968043745    1.130602310442   -0.888337000000
 C    5.370402043745    3.067389310442    0.000000000000
 O    4.203206043745    3.573612310442    0.000000000000
 O    6.494473043745    3.662807310442    0.000000000000
CS   -2.383888046073   -1.310053469676    0.000000000000
