8

 C    5.579056633710    1.635036364650    0.000000000000
 H    6.614556633710    1.258948364650    0.000000000000
 H    5.045856633710    1.254333364650    0.888337000000
 H    5.045856633710    1.254333364650   -0.888337000000
 C    5.537290633710    3.191120364650    0.000000000000
 O    4.370094633710    3.697343364650    0.000000000000
 O    6.661361633710    3.786538364650    0.000000000000
CS   -2.457990703296   -1.364993114740    0.000000000000
