8

 C    5.745945223675    1.758767418859    0.000000000000
 H    6.781445223675    1.382679418859    0.000000000000
 H    5.212745223675    1.378064418859    0.888337000000
 H    5.212745223675    1.378064418859   -0.888337000000
 C    5.704179223675    3.314851418859    0.000000000000
 O    4.536983223675    3.821074418859    0.000000000000
 O    6.828250223675    3.910269418859    0.000000000000
CS   -2.532093360519   -1.419932759804    0.000000000000
