8

 C    5.801574753663    1.800011103595    0.000000000000
 H    6.837074753663    1.423923103595    0.000000000000
 H    5.268374753663    1.419308103595    0.888337000000
 H    5.268374753663    1.419308103595   -0.888337000000
 C    5.759808753663    3.356095103595    0.000000000000
 O    4.592612753663    3.862318103595    0.000000000000
 O    6.883879753663    3.951513103595    0.000000000000
CS   -2.556794246260   -1.438245974826    0.000000000000
