8

 C    5.968463343628    1.923742157804    0.000000000000
 H    7.003963343628    1.547654157804    0.000000000000
 H    5.435263343628    1.543039157804    0.888337000000
 H    5.435263343628    1.543039157804   -0.888337000000
 C    5.926697343628    3.479826157804    0.000000000000
 O    4.759501343628    3.986049157804    0.000000000000
 O    7.050768343628    4.075244157804    0.000000000000
CS   -2.630896903484   -1.493185619890    0.000000000000
