8

 C    6.246610993570    2.129960581485    0.000000000000
 H    7.282110993570    1.753872581485    0.000000000000
 H    5.713410993570    1.749257581485    0.888337000000
 H    5.713410993570    1.749257581485   -0.888337000000
 C    6.204844993570    3.686044581485    0.000000000000
 O    5.037648993570    4.192267581485    0.000000000000
 O    7.328915993570    4.281462581485    0.000000000000
CS   -2.754401332189   -1.584751694996    0.000000000000
