17

 N   -2.942802022480   -1.142927570387    0.393793005391
 C   -1.732613955636   -0.487721366711    0.397754629359
 N   -0.499201541333   -1.086399061173    0.409792914264
 C    0.471221658723   -0.196222919562    0.397920457291
 N    0.268144821310    1.165415213952    0.391085296949
 H    1.071971946561    1.785375753707    0.309097274527
 N    1.796676412960   -0.614897641242    0.319573154056
 H    2.451212618292   -0.083094416842    0.887213930786
 H    1.875481500351   -1.615597785177    0.481156492045
 C   -0.991128921007    1.851448917483    0.404039083626
 O   -1.018709290112    3.079622002260    0.399950955198
 C   -2.063914046983    0.877755528209    0.410240281566
 N   -3.434987348752    1.064086573522    0.410165096850
 C   -3.928510843263   -0.174516440523    0.399834997185
 H   -4.986008756531   -0.428663062355    0.396888352759
 H   -3.067899019011   -2.149510655619    0.385133454360
RB    2.182202367620   -0.713543139170   -0.705921265247
