17

 N   -2.955414149491   -1.139700473653    0.427341112098
 C   -1.745226082647   -0.484494269977    0.431302736066
 N   -0.511813668344   -1.083171964439    0.443341020971
 C    0.458609531712   -0.192995822828    0.431468563998
 N    0.255532694299    1.168642310686    0.424633403656
 H    1.059359819550    1.788602850441    0.342645381234
 N    1.784064285949   -0.611670544508    0.353121260763
 H    2.438600491281   -0.079867320108    0.920762037493
 H    1.862869373340   -1.612370688443    0.514704598752
 C   -1.003741048018    1.854676014217    0.437587190333
 O   -1.031321417123    3.082849098994    0.433499061905
 C   -2.076526173994    0.880982624943    0.443788388273
 N   -3.447599475763    1.067313670256    0.443713203557
 C   -3.941122970274   -0.171289343789    0.433383103892
 H   -4.998620883542   -0.425435965621    0.430436459466
 H   -3.080511146022   -2.146283558885    0.418681561067
RB    2.204638054669   -0.719283814975   -0.765599923932
