17

 N   -2.968026276502   -1.136473376920    0.460889218804
 C   -1.757838209658   -0.481267173244    0.464850842772
 N   -0.524425795355   -1.079944867706    0.476889127677
 C    0.445997404701   -0.189768726095    0.465016670704
 N    0.242920567288    1.171869407419    0.458181510362
 H    1.046747692539    1.791829947174    0.376193487940
 N    1.771452158938   -0.608443447775    0.386669367469
 H    2.425988364270   -0.076640223375    0.954310144199
 H    1.850257246329   -1.609143591710    0.548252705458
 C   -1.016353175029    1.857903110950    0.471135297039
 O   -1.043933544134    3.086076195727    0.467047168611
 C   -2.089138301005    0.884209721676    0.477336494979
 N   -3.460211602774    1.070540766989    0.477261310263
 C   -3.953735097285   -0.168062247056    0.466931210598
 H   -5.011233010553   -0.422208868888    0.463984566172
 H   -3.093123273033   -2.143056462152    0.452229667773
RB    2.227073741718   -0.725024490781   -0.825278582616
