17

 N   -2.980638403513   -1.133246280187    0.494437325511
 C   -1.770450336669   -0.478040076511    0.498398949479
 N   -0.537037922366   -1.076717770973    0.510437234384
 C    0.433385277690   -0.186541629362    0.498564777411
 N    0.230308440277    1.175096504152    0.491729617069
 H    1.034135565528    1.795057043907    0.409741594647
 N    1.758840031927   -0.605216351042    0.420217474176
 H    2.413376237259   -0.073413126642    0.987858250906
 H    1.837645119318   -1.605916494977    0.581800812165
 C   -1.028965302040    1.861130207683    0.504683403746
 O   -1.056545671145    3.089303292460    0.500595275318
 C   -2.101750428016    0.887436818409    0.510884601686
 N   -3.472823729785    1.073767863722    0.510809416970
 C   -3.966347224296   -0.164835150323    0.500479317305
 H   -5.023845137564   -0.418981772155    0.497532672879
 H   -3.105735400044   -2.139829365419    0.485777774480
RB    2.249509428767   -0.730765166586   -0.884957241301
