17

 N   -2.993250530523   -1.130019183453    0.527985432218
 C   -1.783062463679   -0.474812979777    0.531947056186
 N   -0.549650049376   -1.073490674239    0.543985341091
 C    0.420773150680   -0.183314532628    0.532112884118
 N    0.217696313267    1.178323600886    0.525277723776
 H    1.021523438518    1.798284140641    0.443289701354
 N    1.746227904917   -0.601989254308    0.453765580883
 H    2.400764110249   -0.070186029908    1.021406357613
 H    1.825032992308   -1.602689398243    0.615348918872
 C   -1.041577429050    1.864357304417    0.538231510453
 O   -1.069157798155    3.092530389194    0.534143382025
 C   -2.114362555026    0.890663915143    0.544432708393
 N   -3.485435856795    1.076994960456    0.544357523677
 C   -3.978959351306   -0.161608053589    0.534027424012
 H   -5.036457264574   -0.415754675421    0.531080779586
 H   -3.118347527054   -2.136602268685    0.519325881187
RB    2.271945115816   -0.736505842392   -0.944635899985
