17

 N   -3.005862657534   -1.126792086720    0.561533538925
 C   -1.795674590690   -0.471585883044    0.565495162893
 N   -0.562262176387   -1.070263577506    0.577533447798
 C    0.408161023669   -0.180087435895    0.565660990825
 N    0.205084186256    1.181550697619    0.558825830483
 H    1.008911311507    1.801511237374    0.476837808061
 N    1.733615777906   -0.598762157575    0.487313687590
 H    2.388151983238   -0.066958933175    1.054954464320
 H    1.812420865297   -1.599462301510    0.648897025579
 C   -1.054189556061    1.867584401150    0.571779617160
 O   -1.081769925166    3.095757485927    0.567691488732
 C   -2.126974682037    0.893891011876    0.577980815100
 N   -3.498047983806    1.080222057189    0.577905630384
 C   -3.991571478317   -0.158380956856    0.567575530719
 H   -5.049069391585   -0.412527578688    0.564628886293
 H   -3.130959654065   -2.133375171952    0.552873987894
RB    2.294380802865   -0.742246518198   -1.004314558670
