17

 N   -3.081535419599   -1.107429506320    0.762822179165
 C   -1.871347352755   -0.452223302644    0.766783803133
 N   -0.637934938452   -1.050900997106    0.778822088038
 C    0.332488261604   -0.160724855495    0.766949631065
 N    0.129411424191    1.200913278019    0.760114470723
 H    0.933238549442    1.820873817774    0.678126448301
 N    1.657943015841   -0.579399577175    0.688602327830
 H    2.312479221173   -0.047596352775    1.256243104560
 H    1.736748103232   -1.580099721110    0.850185665819
 C   -1.129862318126    1.886946981550    0.773068257400
 O   -1.157442687231    3.115120066327    0.768980128972
 C   -2.202647444102    0.913253592276    0.779269455340
 N   -3.573720745871    1.099584637589    0.779194270624
 C   -4.067244240382   -0.139018376456    0.768864170959
 H   -5.124742153650   -0.393164998288    0.765917526533
 H   -3.206632416130   -2.114012591552    0.754162628134
RB    2.428994925160   -0.776690573031   -1.362386510777
