17

 N   -3.106759673621   -1.100975312853    0.829918392578
 C   -1.896571606777   -0.445769109177    0.833880016546
 N   -0.663159192474   -1.044446803639    0.845918301451
 C    0.307264007582   -0.154270662028    0.834045844478
 N    0.104187170169    1.207367471486    0.827210684136
 H    0.908014295420    1.827328011241    0.745222661714
 N    1.632718761819   -0.572945383708    0.755698541243
 H    2.287254967151   -0.041142159308    1.323339317973
 H    1.711523849210   -1.573645527643    0.917281879232
 C   -1.155086572148    1.893401175017    0.840164470813
 O   -1.182666941253    3.121574259794    0.836076342385
 C   -2.227871698124    0.919707785743    0.846365668753
 N   -3.598944999893    1.106038831056    0.846290484037
 C   -4.092468494404   -0.132564182989    0.835960384372
 H   -5.149966407672   -0.386710804821    0.833013739946
 H   -3.231856670152   -2.107558398085    0.821258841547
RB    2.473866299259   -0.788171924642   -1.481743828146
