17

 N   -3.119371800632   -1.097748216119    0.863466499285
 C   -1.909183733788   -0.442542012443    0.867428123253
 N   -0.675771319485   -1.041219706905    0.879466408158
 C    0.294651880571   -0.151043565294    0.867593951185
 N    0.091575043158    1.210594568220    0.860758790843
 H    0.895402168409    1.830555107975    0.778770768421
 N    1.620106634808   -0.569718286974    0.789246647950
 H    2.274642840140   -0.037915062574    1.356887424680
 H    1.698911722199   -1.570418430909    0.950829985939
 C   -1.167698699159    1.896628271751    0.873712577520
 O   -1.195279068264    3.124801356528    0.869624449092
 C   -2.240483825135    0.922934882477    0.879913775460
 N   -3.611557126904    1.109265927790    0.879838590744
 C   -4.105080621415   -0.129337086255    0.869508491079
 H   -5.162578534683   -0.383483708087    0.866561846653
 H   -3.244468797163   -2.104331301351    0.854806948254
RB    2.496301986308   -0.793912600447   -1.541422486830
