17

 N   -3.144596054653   -1.091294022653    0.930562712699
 C   -1.934407987809   -0.436087818977    0.934524336667
 N   -0.700995573506   -1.034765513439    0.946562621572
 C    0.269427626550   -0.144589371828    0.934690164599
 N    0.066350789137    1.217048761686    0.927855004257
 H    0.870177914388    1.837009301441    0.845866981835
 N    1.594882380787   -0.563264093508    0.856342861364
 H    2.249418586119   -0.031460869108    1.423983638094
 H    1.673687468178   -1.563964237443    1.017926199353
 C   -1.192922953180    1.903082465217    0.940808790934
 O   -1.220503322285    3.131255549994    0.936720662506
 C   -2.265708079156    0.929389075943    0.947009988874
 N   -3.636781380925    1.115720121256    0.946934804158
 C   -4.130304875436   -0.122882892789    0.936604704493
 H   -5.187802788704   -0.377029514621    0.933658060067
 H   -3.269693051184   -2.097877107885    0.921903161668
RB    2.541173360406   -0.805393952058   -1.660779804199
