17

 N   -3.182432435686   -1.081612732453    1.031207032819
 C   -1.972244368842   -0.426406528777    1.035168656787
 N   -0.738831954539   -1.025084223239    1.047206941692
 C    0.231591245517   -0.134908081628    1.035334484719
 N    0.028514408104    1.226730051886    1.028499324377
 H    0.832341533355    1.846690591641    0.946511301955
 N    1.557045999754   -0.553582803308    0.956987181484
 H    2.211582205086   -0.021779578908    1.524627958214
 H    1.635851087145   -1.554282947243    1.118570519473
 C   -1.230759334213    1.912763755417    1.041453111054
 O   -1.258339703318    3.140936840194    1.037364982626
 C   -2.303544460189    0.939070366143    1.047654308994
 N   -3.674617761958    1.125401411456    1.047579124278
 C   -4.168141256469   -0.113201602589    1.037249024613
 H   -5.225639169737   -0.367348224421    1.034302380187
 H   -3.307529432217   -2.088195817685    1.022547481788
RB    2.608480421554   -0.822615979475   -1.839815780252
