17

 N   -3.195044562697   -1.078385635719    1.064755139526
 C   -1.984856495853   -0.423179432043    1.068716763494
 N   -0.751444081550   -1.021857126505    1.080755048399
 C    0.218979118506   -0.131680984894    1.068882591426
 N    0.015902281093    1.229957148620    1.062047431084
 H    0.819729406344    1.849917688375    0.980059408662
 N    1.544433872743   -0.550355706574    0.990535288191
 H    2.198970078075   -0.018552482174    1.558176064921
 H    1.623238960134   -1.551055850509    1.152118626180
 C   -1.243371461224    1.915990852151    1.075001217761
 O   -1.270951830329    3.144163936928    1.070913089333
 C   -2.316156587200    0.942297462877    1.081202415701
 N   -3.687229888969    1.128628508190    1.081127230985
 C   -4.180753383480   -0.109974505855    1.070797131320
 H   -5.238251296748   -0.364121127687    1.067850486894
 H   -3.320141559228   -2.084968720951    1.056095588495
RB    2.630916108603   -0.828356655281   -1.899494438937
