17

 N   -3.245493070740   -1.065477248786    1.198947566352
 C   -2.035305003896   -0.410271045110    1.202909190320
 N   -0.801892589593   -1.008948739572    1.214947475225
 C    0.168530610463   -0.118772597961    1.203075018252
 N   -0.034546226950    1.242865535553    1.196239857910
 H    0.769280898301    1.862826075308    1.114251835488
 N    1.493985364700   -0.537447319641    1.124727715017
 H    2.148521570032   -0.005644095241    1.692368491747
 H    1.572790452091   -1.538147463576    1.286311053006
 C   -1.293819969267    1.928899239084    1.209193644587
 O   -1.321400338372    3.157072323861    1.205105516159
 C   -2.366605095243    0.955205849810    1.215394842527
 N   -3.737678397012    1.141536895123    1.215319657811
 C   -4.231201891523   -0.097066118922    1.204989558146
 H   -5.288699804791   -0.351212740754    1.202042913720
 H   -3.370590067271   -2.072060334018    1.190288015321
RB    2.720658856799   -0.851319358503   -2.138209073675
