17

 N   -3.270717324762   -1.059023055319    1.266043779766
 C   -2.060529257918   -0.403816851643    1.270005403734
 N   -0.827116843615   -1.002494546105    1.282043688639
 C    0.143306356441   -0.112318404494    1.270171231666
 N   -0.059770480972    1.249319729020    1.263336071324
 H    0.744056644279    1.869280268775    1.181348048902
 N    1.468761110678   -0.530993126174    1.191823928431
 H    2.123297316010    0.000810098226    1.759464705161
 H    1.547566198069   -1.531693270109    1.353407266420
 C   -1.319044223289    1.935353432551    1.276289858001
 O   -1.346624592394    3.163526517328    1.272201729573
 C   -2.391829349265    0.961660043277    1.282491055941
 N   -3.762902651034    1.147991088590    1.282415871225
 C   -4.256426145545   -0.090611925455    1.272085771560
 H   -5.313924058813   -0.344758547287    1.269139127134
 H   -3.395814321293   -2.065606140551    1.257384228735
RB    2.765530230898   -0.862800710114   -2.257566391044
