17

 N   -3.283329451772   -1.055795958586    1.299591886473
 C   -2.073141384928   -0.400589754910    1.303553510441
 N   -0.839728970625   -0.999267449372    1.315591795346
 C    0.130694229431   -0.109091307761    1.303719338373
 N   -0.072382607982    1.252546825753    1.296884178031
 H    0.731444517269    1.872507365508    1.214896155609
 N    1.456148983668   -0.527766029441    1.225372035138
 H    2.110685189000    0.004037194959    1.793012811868
 H    1.534954071059   -1.528466173376    1.386955373127
 C   -1.331656350299    1.938580529284    1.309837964708
 O   -1.359236719404    3.166753614061    1.305749836280
 C   -2.404441476275    0.964887140010    1.316039162648
 N   -3.775514778044    1.151218185323    1.315963977932
 C   -4.269038272555   -0.087384828722    1.305633878267
 H   -5.326536185823   -0.341531450554    1.302687233841
 H   -3.408426448303   -2.062379043818    1.290932335442
RB    2.787965917947   -0.868541385919   -2.317245049728
