17

 N   -3.295941578783   -1.052568861852    1.333139993179
 C   -2.085753511939   -0.397362658176    1.337101617147
 N   -0.852341097636   -0.996040352638    1.349139902052
 C    0.118082102420   -0.105864211027    1.337267445079
 N   -0.084994734993    1.255773922487    1.330432284737
 H    0.718832390258    1.875734462242    1.248444262315
 N    1.443536856657   -0.524538932707    1.258920141844
 H    2.098073061989    0.007264291693    1.826560918574
 H    1.522341944048   -1.525239076642    1.420503479833
 C   -1.344268477310    1.941807626018    1.343386071414
 O   -1.371848846415    3.169980710795    1.339297942986
 C   -2.417053603286    0.968114236744    1.349587269354
 N   -3.788126905055    1.154445282057    1.349512084638
 C   -4.281650399566   -0.084157731988    1.339181984973
 H   -5.339148312834   -0.338304353820    1.336235340547
 H   -3.421038575314   -2.059151947084    1.324480442148
RB    2.810401604996   -0.874282061725   -2.376923708413
