17

 N   -3.321165832805   -1.046114668385    1.400236206593
 C   -2.110977765961   -0.390908464709    1.404197830561
 N   -0.877565351658   -0.989586159171    1.416236115466
 C    0.092857848398   -0.099410017560    1.404363658493
 N   -0.110218989015    1.262228115954    1.397528498151
 H    0.693608136236    1.882188655709    1.315540475729
 N    1.418312602635   -0.518084739240    1.326016355258
 H    2.072848807967    0.013718485160    1.893657131988
 H    1.497117690026   -1.518784883175    1.487599693247
 C   -1.369492731332    1.948261819485    1.410482284828
 O   -1.397073100437    3.176434904262    1.406394156400
 C   -2.442277857308    0.974568430211    1.416683482768
 N   -3.813351159077    1.160899475524    1.416608298052
 C   -4.306874653588   -0.077703538521    1.406278198387
 H   -5.364372566856   -0.331850160353    1.403331553961
 H   -3.446262829336   -2.052697753617    1.391576655562
RB    2.855272979094   -0.885763413336   -2.496281025782
