17

 N   -3.333777959816   -1.042887571652    1.433784313300
 C   -2.123589892972   -0.387681367976    1.437745937268
 N   -0.890177478669   -0.986359062438    1.449784222173
 C    0.080245721387   -0.096182920827    1.437911765200
 N   -0.122831116026    1.265455212687    1.431076604858
 H    0.680996009225    1.885415752442    1.349088582436
 N    1.405700475624   -0.514857642507    1.359564461965
 H    2.060236680956    0.016945581893    1.927205238695
 H    1.484505563015   -1.515557786442    1.521147799954
 C   -1.382104858343    1.951488916218    1.444030391535
 O   -1.409685227448    3.179662000995    1.439942263107
 C   -2.454889984319    0.977795526944    1.450231589475
 N   -3.825963286088    1.164126572257    1.450156404759
 C   -4.319486780599   -0.074476441788    1.439826305094
 H   -5.376984693867   -0.328623063620    1.436879660668
 H   -3.458874956347   -2.049470656884    1.425124762269
RB    2.877708666144   -0.891504089142   -2.555959684466
