17

 N   -3.346390086827   -1.039660474919    1.467332420006
 C   -2.136202019983   -0.384454271243    1.471294043974
 N   -0.902789605680   -0.983131965705    1.483332328879
 C    0.067633594376   -0.092955824094    1.471459871906
 N   -0.135443243037    1.268682309420    1.464624711564
 H    0.668383882214    1.888642849175    1.382636689142
 N    1.393088348613   -0.511630545774    1.393112568671
 H    2.047624553945    0.020172678626    1.960753345401
 H    1.471893436004   -1.512330689709    1.554695906660
 C   -1.394716985354    1.954716012951    1.477578498241
 O   -1.422297354459    3.182889097728    1.473490369813
 C   -2.467502111330    0.981022623677    1.483779696181
 N   -3.838575413099    1.167353668990    1.483704511465
 C   -4.332098907610   -0.071249345055    1.473374411800
 H   -5.389596820878   -0.325395966887    1.470427767374
 H   -3.471487083358   -2.046243560151    1.458672868975
RB    2.900144353193   -0.897244764947   -2.615638343151
