17

 N   -3.359002213837   -1.036433378185    1.500880526713
 C   -2.148814146993   -0.381227174509    1.504842150681
 N   -0.915401732690   -0.979904868971    1.516880435586
 C    0.055021467366   -0.089728727360    1.505007978613
 N   -0.148055370047    1.271909406154    1.498172818271
 H    0.655771755204    1.891869945909    1.416184795849
 N    1.380476221603   -0.508403449040    1.426660675378
 H    2.035012426935    0.023399775360    1.994301452108
 H    1.459281308994   -1.509103592975    1.588244013367
 C   -1.407329112364    1.957943109685    1.511126604948
 O   -1.434909481469    3.186116194462    1.507038476520
 C   -2.480114238340    0.984249720411    1.517327802888
 N   -3.851187540109    1.170580765724    1.517252618172
 C   -4.344711034620   -0.068022248321    1.506922518507
 H   -5.402208947888   -0.322168870153    1.503975874081
 H   -3.484099210368   -2.043016463417    1.492220975682
RB    2.922580040242   -0.902985440753   -2.675317001835
