17

 N   -3.434674975902   -1.017070797785    1.702169166953
 C   -2.224486909058   -0.361864594109    1.706130790921
 N   -0.991074494755   -0.960542288571    1.718169075826
 C   -0.020651294699   -0.070366146960    1.706296618853
 N   -0.223728132112    1.291271986554    1.699461458511
 H    0.580098993139    1.911232526309    1.617473436089
 N    1.304803459538   -0.489040868640    1.627949315618
 H    1.959339664870    0.042762355760    2.195590092348
 H    1.383608546929   -1.489741012575    1.789532653607
 C   -1.483001874429    1.977305690085    1.712415245188
 O   -1.510582243534    3.205478774862    1.708327116760
 C   -2.555787000405    1.003612300811    1.718616443128
 N   -3.926860302174    1.189943346124    1.718541258412
 C   -4.420383796685   -0.048659667921    1.708211158747
 H   -5.477881709953   -0.302806289753    1.705264514321
 H   -3.559771972433   -2.023653883017    1.693509615922
RB    3.057194162537   -0.937429495586   -3.033388953942
