17

 N   -3.459899229924   -1.010616604318    1.769265380367
 C   -2.249711163080   -0.355410400642    1.773227004335
 N   -1.016298748777   -0.954088095104    1.785265289240
 C   -0.045875548721   -0.063911953493    1.773392832267
 N   -0.248952386134    1.297726180021    1.766557671925
 H    0.554874739117    1.917686719776    1.684569649503
 N    1.279579205516   -0.482586675173    1.695045529032
 H    1.934115410848    0.049216549227    2.262686305762
 H    1.358384292907   -1.483286819108    1.856628867021
 C   -1.508226128451    1.983759883552    1.779511458602
 O   -1.535806497556    3.211932968329    1.775423330174
 C   -2.581011254427    1.010066494278    1.785712656542
 N   -3.952084556196    1.196397539591    1.785637471826
 C   -4.445608050707   -0.042205474454    1.775307372161
 H   -5.503105963975   -0.296352096286    1.772360727735
 H   -3.584996226455   -2.017199689550    1.760605829336
RB    3.102065536635   -0.948910847197   -3.152746271311
