17

 N   -3.472511356935   -1.007389507585    1.802813487074
 C   -2.262323290091   -0.352183303909    1.806775111042
 N   -1.028910875788   -0.950860998371    1.818813395947
 C   -0.058487675732   -0.060684856760    1.806940938974
 N   -0.261564513145    1.300953276754    1.800105778632
 H    0.542262612106    1.920913816509    1.718117756210
 N    1.266967078505   -0.479359578440    1.728593635739
 H    1.921503283837    0.052443645960    2.296234412469
 H    1.345772165896   -1.480059722375    1.890176973728
 C   -1.520838255462    1.986986980285    1.813059565309
 O   -1.548418624567    3.215160065062    1.808971436881
 C   -2.593623381438    1.013293591011    1.819260763249
 N   -3.964696683207    1.199624636324    1.819185578533
 C   -4.458220177718   -0.038978377721    1.808855478868
 H   -5.515718090986   -0.293124999553    1.805908834442
 H   -3.597608353466   -2.013972592817    1.794153936043
RB    3.124501223684   -0.954651523002   -3.212424929995
