17

 N   -3.485123483946   -1.004162410852    1.836361593780
 C   -2.274935417102   -0.348956207176    1.840323217748
 N   -1.041523002799   -0.947633901638    1.852361502653
 C   -0.071099802743   -0.057457760027    1.840489045680
 N   -0.274176640156    1.304180373487    1.833653885338
 H    0.529650485095    1.924140913242    1.751665862916
 N    1.254354951494   -0.476132481707    1.762141742445
 H    1.908891156826    0.055670742693    2.329782519175
 H    1.333160038885   -1.476832625642    1.923725080434
 C   -1.533450382473    1.990214077018    1.846607672015
 O   -1.561030751578    3.218387161795    1.842519543587
 C   -2.606235508449    1.016520687744    1.852808869955
 N   -3.977308810218    1.202851733057    1.852733685239
 C   -4.470832304729   -0.035751280988    1.842403585574
 H   -5.528330217997   -0.289897902820    1.839456941148
 H   -3.610220480477   -2.010745496084    1.827702042749
RB    3.146936910734   -0.960392198808   -3.272103588680
