17

 N   -3.510347737967   -0.997708217385    1.903457807194
 C   -2.300159671123   -0.342502013709    1.907419431162
 N   -1.066747256820   -0.941179708171    1.919457716067
 C   -0.096324056764   -0.051003566560    1.907585259094
 N   -0.299400894177    1.310634566954    1.900750098752
 H    0.504426231074    1.930595106709    1.818762076330
 N    1.229130697473   -0.469678288240    1.829237955859
 H    1.883666902805    0.062124936160    2.396878732589
 H    1.307935784864   -1.470378432175    1.990821293848
 C   -1.558674636494    1.996668270485    1.913703885429
 O   -1.586255005599    3.224841355262    1.909615757001
 C   -2.631459762470    1.022974881211    1.919905083369
 N   -4.002533064239    1.209305926524    1.919829898653
 C   -4.496056558750   -0.029297087521    1.909499798988
 H   -5.553554472018   -0.283443709353    1.906553154562
 H   -3.635444734498   -2.004291302617    1.894798256163
RB    3.191808284832   -0.971873550419   -3.391460906049
