17

 N   -3.522959864978   -0.994481120651    1.937005913901
 C   -2.312771798134   -0.339274916975    1.940967537869
 N   -1.079359383831   -0.937952611437    1.953005822774
 C   -0.108936183775   -0.047776469826    1.941133365801
 N   -0.312013021188    1.313861663688    1.934298205459
 H    0.491814104063    1.933822203443    1.852310183037
 N    1.216518570462   -0.466451191506    1.862786062566
 H    1.871054775794    0.065352032894    2.430426839296
 H    1.295323657853   -1.467151335441    2.024369400555
 C   -1.571286763505    1.999895367219    1.947251992136
 O   -1.598867132610    3.228068451996    1.943163863708
 C   -2.644071889481    1.026201977945    1.953453190076
 N   -4.015145191250    1.212533023258    1.953378005360
 C   -4.508668685761   -0.026069990787    1.943047905695
 H   -5.566166599029   -0.280216612619    1.940101261269
 H   -3.648056861509   -2.001064205883    1.928346362870
RB    3.214243971881   -0.977614226225   -3.451139564733
