17

 N   -3.560796246011   -0.984799830451    2.037650234021
 C   -2.350608179167   -0.329593626775    2.041611857989
 N   -1.117195764864   -0.928271321237    2.053650142894
 C   -0.146772564808   -0.038095179626    2.041777685921
 N   -0.349849402221    1.323542953888    2.034942525579
 H    0.453977723030    1.943503493643    1.952954503157
 N    1.178682189429   -0.456769901306    1.963430382686
 H    1.833218394761    0.075033323094    2.531071159416
 H    1.257487276820   -1.457470045241    2.125013720675
 C   -1.609123144538    2.009576657419    2.047896312256
 O   -1.636703513643    3.237749742196    2.043808183828
 C   -2.681908270514    1.035883268145    2.054097510196
 N   -4.052981572283    1.222214313458    2.054022325480
 C   -4.546505066794   -0.016388700587    2.043692225815
 H   -5.604002980062   -0.270535322419    2.040745581389
 H   -3.685893242542   -1.991382915683    2.028990682990
RB    3.281551033029   -0.994836253641   -3.630175540787
