17

 N   -3.586020500032   -0.978345636985    2.104746447434
 C   -2.375832433188   -0.323139433309    2.108708071402
 N   -1.142420018885   -0.921817127771    2.120746356307
 C   -0.171996818829   -0.031640986160    2.108873899334
 N   -0.375073656242    1.329997147354    2.102038738992
 H    0.428753469009    1.949957687109    2.020050716570
 N    1.153457935408   -0.450315707840    2.030526596099
 H    1.807994140740    0.081487516560    2.598167372829
 H    1.232263022799   -1.451015851775    2.192109934088
 C   -1.634347398559    2.016030850885    2.114992525669
 O   -1.661927767664    3.244203935662    2.110904397241
 C   -2.707132524535    1.042337461611    2.121193723609
 N   -4.078205826304    1.228668506924    2.121118538893
 C   -4.571729320815   -0.009934507121    2.110788439228
 H   -5.629227234083   -0.264081128953    2.107841794802
 H   -3.711117496563   -1.984928722217    2.096086896403
RB    3.326422407127   -1.006317605252   -3.749532858156
