17

 N   -3.611244754054   -0.971891443518    2.171842660848
 C   -2.401056687210   -0.316685239842    2.175804284816
 N   -1.167644272907   -0.915362934304    2.187842569721
 C   -0.197221072851   -0.025186792693    2.175970112748
 N   -0.400297910264    1.336451340821    2.169134952406
 H    0.403529214987    1.956411880576    2.087146929984
 N    1.128233681386   -0.443861514373    2.097622809513
 H    1.782769886718    0.087941710027    2.665263586243
 H    1.207038768777   -1.444561658308    2.259206147502
 C   -1.659571652581    2.022485044352    2.182088739083
 O   -1.687152021686    3.250658129129    2.178000610655
 C   -2.732356778557    1.048791655078    2.188289937023
 N   -4.103430080326    1.235122700391    2.188214752307
 C   -4.596953574837   -0.003480313654    2.177884652642
 H   -5.654451488105   -0.257626935486    2.174938008216
 H   -3.736341750585   -1.978474528750    2.163183109817
RB    3.371293781225   -1.017798956863   -3.868890175524
