17

 N   -3.674305389108   -0.955755959851    2.339583194381
 C   -2.464117322264   -0.300549756175    2.343544818349
 N   -1.230704907961   -0.899227450637    2.355583103254
 C   -0.260281707905   -0.009051309026    2.343710646281
 N   -0.463358545318    1.352586824488    2.336875485939
 H    0.340468579933    1.972547364243    2.254887463517
 N    1.065173046332   -0.427726030706    2.265363343046
 H    1.719709251664    0.104077193694    2.833004119776
 H    1.143978133723   -1.428426174641    2.426946681035
 C   -1.722632287635    2.038620528019    2.349829272616
 O   -1.750212656740    3.266793612796    2.345741144188
 C   -2.795417413611    1.064927138745    2.356030470556
 N   -4.166490715380    1.251258184058    2.355955285840
 C   -4.660014209891    0.012655170013    2.345625186175
 H   -5.717512123159   -0.241491451819    2.342678541749
 H   -3.799402385639   -1.962339045083    2.330923643350
RB    3.483472216471   -1.046502335891   -4.167283468947
