17

 N   -3.686917516119   -0.952528863118    2.373131301088
 C   -2.476729449275   -0.297322659442    2.377092925056
 N   -1.243317034972   -0.896000353904    2.389131209961
 C   -0.272893834916   -0.005824212293    2.377258752988
 N   -0.475970672329    1.355813921221    2.370423592646
 H    0.327856452922    1.975774460976    2.288435570224
 N    1.052560919321   -0.424498933973    2.298911449753
 H    1.707097124653    0.107304290427    2.866552226483
 H    1.131366006712   -1.425199077908    2.460494787742
 C   -1.735244414646    2.041847624752    2.383377379323
 O   -1.762824783751    3.270020709529    2.379289250895
 C   -2.808029540622    1.068154235478    2.389578577263
 N   -4.179102842391    1.254485280791    2.389503392547
 C   -4.672626336902    0.015882266746    2.379173292882
 H   -5.730124250170   -0.238264355086    2.376226648456
 H   -3.812014512650   -1.959111948350    2.364471750057
RB    3.505907903520   -1.052243011697   -4.226962127631
