17

 N   -3.724753897151   -0.942847572917    2.473775621208
 C   -2.514565830307   -0.287641369241    2.477737245176
 N   -1.281153416004   -0.886319063703    2.489775530081
 C   -0.310730215948    0.003857077908    2.477903073108
 N   -0.513807053361    1.365495211422    2.471067912766
 H    0.290020071890    1.985455751177    2.389079890344
 N    1.014724538289   -0.414817643772    2.399555769873
 H    1.669260743621    0.116985580628    2.967196546603
 H    1.093529625680   -1.415517787707    2.561139107862
 C   -1.773080795678    2.051528914953    2.484021699443
 O   -1.800661164783    3.279701999730    2.479933571015
 C   -2.845865921654    1.077835525679    2.490222897383
 N   -4.216939223423    1.264166570992    2.490147712667
 C   -4.710462717934    0.025563556947    2.479817613002
 H   -5.767960631202   -0.228583064885    2.476870968576
 H   -3.849850893682   -1.949430658149    2.465116070177
RB    3.573214964668   -1.069465039113   -4.405998103685
