17

 N   -3.749978151173   -0.936393379451    2.540871834622
 C   -2.539790084329   -0.281187175775    2.544833458590
 N   -1.306377670026   -0.879864870237    2.556871743495
 C   -0.335954469970    0.010311271374    2.544999286522
 N   -0.539031307383    1.371949404888    2.538164126180
 H    0.264795817868    1.991909944643    2.456176103758
 N    0.989500284267   -0.408363450306    2.466651983287
 H    1.644036489599    0.123439774094    3.034292760017
 H    1.068305371658   -1.409063594241    2.628235321276
 C   -1.798305049700    2.057983108419    2.551117912857
 O   -1.825885418805    3.286156193196    2.547029784429
 C   -2.871090175676    1.084289719145    2.557319110797
 N   -4.242163477445    1.270620764458    2.557243926081
 C   -4.735686971956    0.032017750413    2.546913826416
 H   -5.793184885224   -0.222128871419    2.543967181990
 H   -3.875075147704   -1.942976464683    2.532212283591
RB    3.618086338766   -1.080946390724   -4.525355421054
