17

 N   -3.762590278184   -0.933166282717    2.574419941329
 C   -2.552402211340   -0.277960079041    2.578381565297
 N   -1.318989797037   -0.876637773503    2.590419850202
 C   -0.348566596981    0.013538368108    2.578547393229
 N   -0.551643434394    1.375176501622    2.571712232887
 H    0.252183690857    1.995137041377    2.489724210465
 N    0.976888157256   -0.405136353572    2.500200089994
 H    1.631424362588    0.126666870828    3.067840866724
 H    1.055693244647   -1.405836497507    2.661783427983
 C   -1.810917176711    2.061210205153    2.584666019564
 O   -1.838497545816    3.289383289930    2.580577891136
 C   -2.883702302687    1.087516815879    2.590867217504
 N   -4.254775604456    1.273847861192    2.590792032788
 C   -4.748299098967    0.035244847147    2.580461933123
 H   -5.805797012235   -0.218901774685    2.577515288697
 H   -3.887687274715   -1.939749367949    2.565760390298
RB    3.640522025815   -1.086687066530   -4.585034079738
