17

 N   -3.775202405195   -0.929939185984    2.607968048035
 C   -2.565014338351   -0.274732982308    2.611929672003
 N   -1.331601924048   -0.873410676770    2.623967956908
 C   -0.361178723992    0.016765464841    2.612095499935
 N   -0.564255561405    1.378403598355    2.605260339593
 H    0.239571563846    1.998364138110    2.523272317171
 N    0.964276030245   -0.401909256839    2.533748196700
 H    1.618812235577    0.129893967561    3.101388973430
 H    1.043081117636   -1.402609400774    2.695331534689
 C   -1.823529303722    2.064437301886    2.618214126270
 O   -1.851109672827    3.292610386663    2.614125997842
 C   -2.896314429698    1.090743912612    2.624415324210
 N   -4.267387731467    1.277074957925    2.624340139494
 C   -4.760911225978    0.038471943880    2.614010039829
 H   -5.818409139246   -0.215674677952    2.611063395403
 H   -3.900299401726   -1.936522271216    2.599308497004
RB    3.662957712864   -1.092427742335   -4.644712738423
