17

 N   -3.800426659216   -0.923484992517    2.675064261449
 C   -2.590238592372   -0.268278788841    2.679025885417
 N   -1.356826178069   -0.866956483303    2.691064170322
 C   -0.386402978013    0.023219658308    2.679191713349
 N   -0.589479815426    1.384857791822    2.672356553007
 H    0.214347309825    2.004818331577    2.590368530585
 N    0.939051776224   -0.395455063372    2.600844410114
 H    1.593587981556    0.136348161028    3.168485186844
 H    1.017856863615   -1.396155207307    2.762427748103
 C   -1.848753557743    2.070891495353    2.685310339684
 O   -1.876333926848    3.299064580130    2.681222211256
 C   -2.921538683719    1.097198106079    2.691511537624
 N   -4.292611985488    1.283529151392    2.691436352908
 C   -4.786135479999    0.044926137347    2.681106253243
 H   -5.843633393267   -0.209220484485    2.678159608817
 H   -3.925523655747   -1.930068077749    2.666404710418
RB    3.707829086963   -1.103909093946   -4.764070055792
