17

 N   -3.813038786227   -0.920257895784    2.708612368156
 C   -2.602850719383   -0.265051692108    2.712573992124
 N   -1.369438305080   -0.863729386570    2.724612277029
 C   -0.399015105024    0.026446755041    2.712739820056
 N   -0.602091942437    1.388084888555    2.705904659714
 H    0.201735182814    2.008045428310    2.623916637292
 N    0.926439649213   -0.392227966639    2.634392516821
 H    1.580975854545    0.139575257761    3.202033293551
 H    1.005244736604   -1.392928110574    2.795975854810
 C   -1.861365684754    2.074118592086    2.718858446391
 O   -1.888946053859    3.302291676863    2.714770317963
 C   -2.934150810730    1.100425202812    2.725059644331
 N   -4.305224112499    1.286756248125    2.724984459615
 C   -4.798747607010    0.048153234080    2.714654359950
 H   -5.856245520278   -0.205993387752    2.711707715524
 H   -3.938135782758   -1.926840981016    2.699952817125
RB    3.730264774012   -1.109649769752   -4.823748714476
