17

 N   -3.825650913238   -0.917030799050    2.742160474862
 C   -2.615462846394   -0.261824595374    2.746122098830
 N   -1.382050432091   -0.860502289836    2.758160383735
 C   -0.411627232035    0.029673851775    2.746287926762
 N   -0.614704069448    1.391311985289    2.739452766420
 H    0.189123055803    2.011272525044    2.657464743998
 N    0.913827522202   -0.389000869905    2.667940623527
 H    1.568363727534    0.142802354495    3.235581400257
 H    0.992632609593   -1.389701013840    2.829523961516
 C   -1.873977811765    2.077345688820    2.752406553097
 O   -1.901558180870    3.305518773597    2.748318424669
 C   -2.946762937741    1.103652299546    2.758607751037
 N   -4.317836239510    1.289983344859    2.758532566321
 C   -4.811359734021    0.051380330814    2.748202466656
 H   -5.868857647289   -0.202766291018    2.745255822230
 H   -3.950747909769   -1.923613884282    2.733500923831
RB    3.752700461061   -1.115390445558   -4.883427373160
