17

 N   -3.863487294270   -0.907349508850    2.842804794982
 C   -2.653299227426   -0.252143305174    2.846766418950
 N   -1.419886813123   -0.850820999636    2.858804703855
 C   -0.449463613067    0.039355141975    2.846932246882
 N   -0.652540450480    1.400993275489    2.840097086540
 H    0.151286674771    2.020953815244    2.758109064118
 N    0.875991141170   -0.379319579705    2.768584943647
 H    1.530527346502    0.152483644695    3.336225720377
 H    0.954796228561   -1.380019723640    2.930168281636
 C   -1.911814192797    2.087026979020    2.853050873217
 O   -1.939394561902    3.315200063797    2.848962744789
 C   -2.984599318773    1.113333589746    2.859252071157
 N   -4.355672620542    1.299664635059    2.859176886441
 C   -4.849196115053    0.061061621014    2.848846786776
 H   -5.906694028321   -0.193085000818    2.845900142350
 H   -3.988584290801   -1.913932594082    2.834145243951
RB    3.820007522208   -1.132612472974   -5.062463349214
