17

 N   -3.901323675303   -0.897668218650    2.943449115103
 C   -2.691135608459   -0.242462014974    2.947410739071
 N   -1.457723194156   -0.841139709436    2.959449023976
 C   -0.487299994100    0.049036432175    2.947576567003
 N   -0.690376831513    1.410674565689    2.940741406661
 H    0.113450293738    2.030635105444    2.858753384239
 N    0.838154760137   -0.369638289505    2.869229263768
 H    1.492690965469    0.162164934895    3.436870040498
 H    0.916959847528   -1.370338433440    3.030812601757
 C   -1.949650573830    2.096708269220    2.953695193338
 O   -1.977230942935    3.324881353997    2.949607064910
 C   -3.022435699806    1.123014879946    2.959896391278
 N   -4.393509001575    1.309345925259    2.959821206562
 C   -4.887032496086    0.070742911214    2.949491106897
 H   -5.944530409354   -0.183403710618    2.946544462471
 H   -4.026420671834   -1.904251303882    2.934789564072
RB    3.887314583356   -1.149834500391   -5.241499325267
