17

 N   -3.976996437368   -0.878305638250    3.144737755343
 C   -2.766808370524   -0.223099434574    3.148699379311
 N   -1.533395956221   -0.821777129036    3.160737664216
 C   -0.562972756165    0.068399012575    3.148865207243
 N   -0.766049593578    1.430037146089    3.142030046901
 H    0.037777531673    2.049997685844    3.060042024479
 N    0.762481998072   -0.350275709105    3.070517904008
 H    1.417018203404    0.181527515295    3.638158680738
 H    0.841287085463   -1.350975853040    3.232101241997
 C   -2.025323335895    2.116070849620    3.154983833578
 O   -2.052903705000    3.344243934397    3.150895705150
 C   -3.098108461871    1.142377460346    3.161185031518
 N   -4.469181763640    1.328708505659    3.161109846802
 C   -4.962705258151    0.090105491614    3.150779747137
 H   -6.020203171419   -0.164041130218    3.147833102711
 H   -4.102093433899   -1.884888723482    3.136078204312
RB    4.021928705651   -1.184278555224   -5.599571277374
