17

 N   -4.040057072422   -0.862170154583    3.312478288877
 C   -2.829869005578   -0.206963950907    3.316439912845
 N   -1.596456591275   -0.805641645369    3.328478197750
 C   -0.626033391219    0.084534496242    3.316605740777
 N   -0.829110228632    1.446172629756    3.309770580435
 H   -0.025283103381    2.066133169511    3.227782558013
 N    0.699421363018   -0.334140225438    3.238258437542
 H    1.353957568350    0.197662998962    3.805899214272
 H    0.778226450409   -1.334840369373    3.399841775531
 C   -2.088383970949    2.132206333287    3.322724367112
 O   -2.115964340054    3.360379418064    3.318636238684
 C   -3.161169096925    1.158512944013    3.328925565052
 N   -4.532242398694    1.344843989326    3.328850380336
 C   -5.025765893205    0.106240975281    3.318520280671
 H   -6.083263806473   -0.147905646551    3.315573636245
 H   -4.165154068953   -1.868753239815    3.303818737846
RB    4.134107140897   -1.212981934252   -5.897964570797
