17

 N   -4.052669199433   -0.858943057850    3.346026395583
 C   -2.842481132589   -0.203736854174    3.349988019551
 N   -1.609068718286   -0.802414548636    3.362026304456
 C   -0.638645518230    0.087761592975    3.350153847483
 N   -0.841722355643    1.449399726489    3.343318687141
 H   -0.037895230392    2.069360266244    3.261330664719
 N    0.686809236007   -0.330913128705    3.271806544248
 H    1.341345441339    0.200890095695    3.839447320978
 H    0.765614323398   -1.331613272640    3.433389882237
 C   -2.100996097960    2.135433430020    3.356272473818
 O   -2.128576467065    3.363606514797    3.352184345390
 C   -3.173781223936    1.161740040746    3.362473671758
 N   -4.544854525705    1.348071086059    3.362398487042
 C   -5.038378020216    0.109468072014    3.352068387377
 H   -6.095875933484   -0.144678549818    3.349121742951
 H   -4.177766195964   -1.865526143082    3.337366844552
RB    4.156542827946   -1.218722610057   -5.957643229481
