14

 C   -0.030891487195   -3.153891295505   -0.443203535111
 H   -0.023169487195   -4.247066295505   -0.443203535111
 C    1.179584512805   -2.434052295505   -0.443203535111
 H    2.134603512805   -2.967751295505   -0.443203535111
 C   -1.250715487195   -2.453885295505   -0.443203535111
 H   -2.198847487195   -2.999697295505   -0.443203535111
 C    1.177176512805   -1.028907295505   -0.443203535111
 H    2.108530512805   -0.456368295505   -0.443203535111
 C   -1.264566487195   -1.046404295505   -0.443203535111
 H   -2.216565487195   -0.503683295505   -0.443203535111
 C   -0.048289487195   -0.338622295505   -0.443203535111
 O    0.012257512805    1.041838704495   -0.443203535111
 H   -0.890873487195    1.390265704495   -0.443203535111
RB    0.044177465179    1.397519658446    0.490858655343
