14

 C   -0.032406058267   -3.170768015040   -0.487523888622
 H   -0.024684058267   -4.263943015040   -0.487523888622
 C    1.178069941733   -2.450929015040   -0.487523888622
 H    2.133088941733   -2.984628015040   -0.487523888622
 C   -1.252230058267   -2.470762015040   -0.487523888622
 H   -2.200362058267   -3.016574015040   -0.487523888622
 C    1.175661941733   -1.045784015040   -0.487523888622
 H    2.107015941733   -0.473245015040   -0.487523888622
 C   -1.266081058267   -1.063281015040   -0.487523888622
 H   -2.218080058267   -0.520560015040   -0.487523888622
 C   -0.049804058267   -0.355499015040   -0.487523888622
 O    0.010742941733    1.024961984960   -0.487523888622
 H   -0.892388058267    1.373388984960   -0.487523888622
RB    0.045854889345    1.416211034306    0.539944520878
