14

 C   -0.033920629339   -3.187644734575   -0.531844242133
 H   -0.026198629339   -4.280819734575   -0.531844242133
 C    1.176555370661   -2.467805734575   -0.531844242133
 H    2.131574370661   -3.001504734575   -0.531844242133
 C   -1.253744629339   -2.487638734575   -0.531844242133
 H   -2.201876629339   -3.033450734575   -0.531844242133
 C    1.174147370661   -1.062660734575   -0.531844242133
 H    2.105501370661   -0.490121734575   -0.531844242133
 C   -1.267595629339   -1.080157734575   -0.531844242133
 H   -2.219594629339   -0.537436734575   -0.531844242133
 C   -0.051318629339   -0.372375734575   -0.531844242133
 O    0.009228370661    1.008085265425   -0.531844242133
 H   -0.893902629339    1.356512265425   -0.531844242133
RB    0.047532313510    1.434902410167    0.589030386412
