14

 C   -0.039978913628   -3.255151612713   -0.709125656178
 H   -0.032256913628   -4.348326612713   -0.709125656178
 C    1.170497086372   -2.535312612713   -0.709125656178
 H    2.125516086372   -3.069011612713   -0.709125656178
 C   -1.259802913628   -2.555145612713   -0.709125656178
 H   -2.207934913628   -3.100957612713   -0.709125656178
 C    1.168089086372   -1.130167612713   -0.709125656178
 H    2.099443086372   -0.557628612713   -0.709125656178
 C   -1.273653913628   -1.147664612713   -0.709125656178
 H   -2.225652913628   -0.604943612713   -0.709125656178
 C   -0.057376913628   -0.439882612713   -0.709125656178
 O    0.003170086372    0.940578387287   -0.709125656178
 H   -0.899960913628    1.289005387287   -0.709125656178
RB    0.054242010171    1.509667913608    0.785373848550
