14

 C   -0.041493484700   -3.272028332248   -0.753446009689
 H   -0.033771484700   -4.365203332248   -0.753446009689
 C    1.168982515300   -2.552189332248   -0.753446009689
 H    2.124001515300   -3.085888332248   -0.753446009689
 C   -1.261317484700   -2.572022332248   -0.753446009689
 H   -2.209449484700   -3.117834332248   -0.753446009689
 C    1.166574515300   -1.147044332248   -0.753446009689
 H    2.097928515300   -0.574505332248   -0.753446009689
 C   -1.275168484700   -1.164541332248   -0.753446009689
 H   -2.227167484700   -0.621820332248   -0.753446009689
 C   -0.058891484700   -0.456759332248   -0.753446009689
 O    0.001655515300    0.923701667752   -0.753446009689
 H   -0.901475484700    1.272128667752   -0.753446009689
RB    0.055919434336    1.528359289469    0.834459714084
