14

 C   -0.043008055772   -3.288905051783   -0.797766363200
 H   -0.035286055772   -4.382080051783   -0.797766363200
 C    1.167467944228   -2.569066051783   -0.797766363200
 H    2.122486944228   -3.102765051783   -0.797766363200
 C   -1.262832055772   -2.588899051783   -0.797766363200
 H   -2.210964055772   -3.134711051783   -0.797766363200
 C    1.165059944228   -1.163921051783   -0.797766363200
 H    2.096413944228   -0.591382051783   -0.797766363200
 C   -1.276683055772   -1.181418051783   -0.797766363200
 H   -2.228682055772   -0.638697051783   -0.797766363200
 C   -0.060406055772   -0.473636051783   -0.797766363200
 O    0.000140944228    0.906824948217   -0.797766363200
 H   -0.902990055772    1.255251948217   -0.797766363200
RB    0.057596858501    1.547050665329    0.883545579618
