14

 C   -0.046037197916   -3.322658490852   -0.886407070222
 H   -0.038315197916   -4.415833490852   -0.886407070222
 C    1.164438802084   -2.602819490852   -0.886407070222
 H    2.119457802084   -3.136518490852   -0.886407070222
 C   -1.265861197916   -2.622652490852   -0.886407070222
 H   -2.213993197916   -3.168464490852   -0.886407070222
 C    1.162030802084   -1.197674490852   -0.886407070222
 H    2.093384802084   -0.625135490852   -0.886407070222
 C   -1.279712197916   -1.215171490852   -0.886407070222
 H   -2.231711197916   -0.672450490852   -0.886407070222
 C   -0.063435197916   -0.507389490852   -0.886407070222
 O   -0.002888197916    0.873071509148   -0.886407070222
 H   -0.906019197916    1.221498509148   -0.886407070222
RB    0.060951706832    1.584433417050    0.981717310687
