14

 C   -0.047551768988   -3.339535210387   -0.930727423734
 H   -0.039829768988   -4.432710210387   -0.930727423734
 C    1.162924231012   -2.619696210387   -0.930727423734
 H    2.117943231012   -3.153395210387   -0.930727423734
 C   -1.267375768988   -2.639529210387   -0.930727423734
 H   -2.215507768988   -3.185341210387   -0.930727423734
 C    1.160516231012   -1.214551210387   -0.930727423734
 H    2.091870231012   -0.642012210387   -0.930727423734
 C   -1.281226768988   -1.232048210387   -0.930727423734
 H   -2.233225768988   -0.689327210387   -0.930727423734
 C   -0.064949768988   -0.524266210387   -0.930727423734
 O   -0.004402768988    0.856194789613   -0.930727423734
 H   -0.907533768988    1.204621789613   -0.930727423734
RB    0.062629130997    1.603124792910    1.030803176221
