14

 C   -0.050580911133   -3.373288649456   -1.019368130756
 H   -0.042858911133   -4.466463649456   -1.019368130756
 C    1.159895088867   -2.653449649456   -1.019368130756
 H    2.114914088867   -3.187148649456   -1.019368130756
 C   -1.270404911133   -2.673282649456   -1.019368130756
 H   -2.218536911133   -3.219094649456   -1.019368130756
 C    1.157487088867   -1.248304649456   -1.019368130756
 H    2.088841088867   -0.675765649456   -1.019368130756
 C   -1.284255911133   -1.265801649456   -1.019368130756
 H   -2.236254911133   -0.723080649456   -1.019368130756
 C   -0.067978911133   -0.558019649456   -1.019368130756
 O   -0.007431911133    0.822441350544   -1.019368130756
 H   -0.910562911133    1.170868350544   -1.019368130756
RB    0.065983979327    1.640507544631    1.128974907290
