14

 C   -0.053610053277   -3.407042088526   -1.108008837778
 H   -0.045888053277   -4.500217088526   -1.108008837778
 C    1.156865946723   -2.687203088526   -1.108008837778
 H    2.111884946723   -3.220902088526   -1.108008837778
 C   -1.273434053277   -2.707036088526   -1.108008837778
 H   -2.221566053277   -3.252848088526   -1.108008837778
 C    1.154457946723   -1.282058088526   -1.108008837778
 H    2.085811946723   -0.709519088526   -1.108008837778
 C   -1.287285053277   -1.299555088526   -1.108008837778
 H   -2.239284053277   -0.756834088526   -1.108008837778
 C   -0.071008053277   -0.591773088526   -1.108008837778
 O   -0.010461053277    0.788687911474   -1.108008837778
 H   -0.913592053277    1.137114911474   -1.108008837778
RB    0.069338827658    1.677890296352    1.227146638359
