14

 C   -0.059668337566   -3.474548966665   -1.285290251823
 H   -0.051946337566   -4.567723966665   -1.285290251823
 C    1.150807662434   -2.754709966665   -1.285290251823
 H    2.105826662434   -3.288408966665   -1.285290251823
 C   -1.279492337566   -2.774542966665   -1.285290251823
 H   -2.227624337566   -3.320354966665   -1.285290251823
 C    1.148399662434   -1.349564966665   -1.285290251823
 H    2.079753662434   -0.777025966665   -1.285290251823
 C   -1.293343337566   -1.367061966665   -1.285290251823
 H   -2.245342337566   -0.824340966665   -1.285290251823
 C   -0.077066337566   -0.659279966665   -1.285290251823
 O   -0.016519337566    0.721181033335   -1.285290251823
 H   -0.919650337566    1.069608033335   -1.285290251823
RB    0.076048524319    1.752655799793    1.423490100496
