14

 C   -0.061182908638   -3.491425686199   -1.329610605334
 H   -0.053460908638   -4.584600686199   -1.329610605334
 C    1.149293091362   -2.771586686199   -1.329610605334
 H    2.104312091362   -3.305285686199   -1.329610605334
 C   -1.281006908638   -2.791419686199   -1.329610605334
 H   -2.229138908638   -3.337231686199   -1.329610605334
 C    1.146885091362   -1.366441686199   -1.329610605334
 H    2.078239091362   -0.793902686199   -1.329610605334
 C   -1.294857908638   -1.383938686199   -1.329610605334
 H   -2.246856908638   -0.841217686199   -1.329610605334
 C   -0.078580908638   -0.676156686199   -1.329610605334
 O   -0.018033908638    0.704304313801   -1.329610605334
 H   -0.921164908638    1.052731313801   -1.329610605334
RB    0.077725948484    1.771347175654    1.472575966030
