14

 C   -0.064212050782   -3.525179125269   -1.418251312356
 H   -0.056490050782   -4.618354125269   -1.418251312356
 C    1.146263949218   -2.805340125269   -1.418251312356
 H    2.101282949218   -3.339039125269   -1.418251312356
 C   -1.284036050782   -2.825173125269   -1.418251312356
 H   -2.232168050782   -3.370985125269   -1.418251312356
 C    1.143855949218   -1.400195125269   -1.418251312356
 H    2.075209949218   -0.827656125269   -1.418251312356
 C   -1.297887050782   -1.417692125269   -1.418251312356
 H   -2.249886050782   -0.874971125269   -1.418251312356
 C   -0.081610050782   -0.709910125269   -1.418251312356
 O   -0.021063050782    0.670550874731   -1.418251312356
 H   -0.924194050782    1.018977874731   -1.418251312356
RB    0.081080796814    1.808729927374    1.570747697099
