14

 C   -0.076328619360   -3.660192881546   -1.772814140445
 H   -0.068606619360   -4.753367881546   -1.772814140445
 C    1.134147380640   -2.940353881546   -1.772814140445
 H    2.089166380640   -3.474052881546   -1.772814140445
 C   -1.296152619360   -2.960186881546   -1.772814140445
 H   -2.244284619360   -3.505998881546   -1.772814140445
 C    1.131739380640   -1.535208881546   -1.772814140445
 H    2.063093380640   -0.962669881546   -1.772814140445
 C   -1.310003619360   -1.552705881546   -1.772814140445
 H   -2.262002619360   -1.009984881546   -1.772814140445
 C   -0.093726619360   -0.844923881546   -1.772814140445
 O   -0.033179619360    0.535537118454   -1.772814140445
 H   -0.936310619360    0.883964118454   -1.772814140445
RB    0.094500190136    1.958260934257    1.963434621374
