14

 C   -0.077843190432   -3.677069601081   -1.817134493956
 H   -0.070121190432   -4.770244601081   -1.817134493956
 C    1.132632809568   -2.957230601081   -1.817134493956
 H    2.087651809568   -3.490929601081   -1.817134493956
 C   -1.297667190432   -2.977063601081   -1.817134493956
 H   -2.245799190432   -3.522875601081   -1.817134493956
 C    1.130224809568   -1.552085601081   -1.817134493956
 H    2.061578809568   -0.979546601081   -1.817134493956
 C   -1.311518190432   -1.569582601081   -1.817134493956
 H   -2.263517190432   -1.026861601081   -1.817134493956
 C   -0.095241190432   -0.861800601081   -1.817134493956
 O   -0.034694190432    0.518660398919   -1.817134493956
 H   -0.937825190432    0.867087398919   -1.817134493956
RB    0.096177614301    1.976952310118    2.012520486908
