14

 C   -0.083901474720   -3.744576479220   -1.994415908000
 H   -0.076179474720   -4.837751479220   -1.994415908000
 C    1.126574525280   -3.024737479220   -1.994415908000
 H    2.081593525280   -3.558436479220   -1.994415908000
 C   -1.303725474720   -3.044570479220   -1.994415908000
 H   -2.251857474720   -3.590382479220   -1.994415908000
 C    1.124166525280   -1.619592479220   -1.994415908000
 H    2.055520525280   -1.047053479220   -1.994415908000
 C   -1.317576474720   -1.637089479220   -1.994415908000
 H   -2.269575474720   -1.094368479220   -1.994415908000
 C   -0.101299474720   -0.929307479220   -1.994415908000
 O   -0.040752474720    0.451153520780   -1.994415908000
 H   -0.943883474720    0.799580520780   -1.994415908000
RB    0.102887310962    2.051717813559    2.208863949046
