14

 C   -0.086930616865   -3.778329918289   -2.083056615023
 H   -0.079208616865   -4.871504918289   -2.083056615023
 C    1.123545383135   -3.058490918289   -2.083056615023
 H    2.078564383135   -3.592189918289   -2.083056615023
 C   -1.306754616865   -3.078323918289   -2.083056615023
 H   -2.254886616865   -3.624135918289   -2.083056615023
 C    1.121137383135   -1.653345918289   -2.083056615023
 H    2.052491383135   -1.080806918289   -2.083056615023
 C   -1.320605616865   -1.670842918289   -2.083056615023
 H   -2.272604616865   -1.128121918289   -2.083056615023
 C   -0.104328616865   -0.963060918289   -2.083056615023
 O   -0.043781616865    0.417400081711   -2.083056615023
 H   -0.946912616865    0.765827081711   -2.083056615023
RB    0.106242159292    2.089100565280    2.307035680114
