14

 C   -0.089959759009   -3.812083357359   -2.171697322045
 H   -0.082237759009   -4.905258357359   -2.171697322045
 C    1.120516240991   -3.092244357359   -2.171697322045
 H    2.075535240991   -3.625943357359   -2.171697322045
 C   -1.309783759009   -3.112077357359   -2.171697322045
 H   -2.257915759009   -3.657889357359   -2.171697322045
 C    1.118108240991   -1.687099357359   -2.171697322045
 H    2.049462240991   -1.114560357359   -2.171697322045
 C   -1.323634759009   -1.704596357359   -2.171697322045
 H   -2.275633759009   -1.161875357359   -2.171697322045
 C   -0.107357759009   -0.996814357359   -2.171697322045
 O   -0.046810759009    0.383646642641   -2.171697322045
 H   -0.949941759009    0.732073642641   -2.171697322045
RB    0.109597007623    2.126483317001    2.405207411183
