14

 C   -0.096018043298   -3.879590235498   -2.348978736089
 H   -0.088296043298   -4.972765235498   -2.348978736089
 C    1.114457956702   -3.159751235498   -2.348978736089
 H    2.069476956702   -3.693450235498   -2.348978736089
 C   -1.315842043298   -3.179584235498   -2.348978736089
 H   -2.263974043298   -3.725396235498   -2.348978736089
 C    1.112049956702   -1.754606235498   -2.348978736089
 H    2.043403956702   -1.182067235498   -2.348978736089
 C   -1.329693043298   -1.772103235498   -2.348978736089
 H   -2.281692043298   -1.229382235498   -2.348978736089
 C   -0.113416043298   -1.064321235498   -2.348978736089
 O   -0.052869043298    0.316139764502   -2.348978736089
 H   -0.956000043298    0.664566764502   -2.348978736089
RB    0.116306704284    2.201248820443    2.601550873320
