14

 C   -0.097532614370   -3.896466955032   -2.393299089601
 H   -0.089810614370   -4.989641955032   -2.393299089601
 C    1.112943385630   -3.176627955032   -2.393299089601
 H    2.067962385630   -3.710326955032   -2.393299089601
 C   -1.317356614370   -3.196460955032   -2.393299089601
 H   -2.265488614370   -3.742272955032   -2.393299089601
 C    1.110535385630   -1.771482955032   -2.393299089601
 H    2.041889385630   -1.198943955032   -2.393299089601
 C   -1.331207614370   -1.788979955032   -2.393299089601
 H   -2.283206614370   -1.246258955032   -2.393299089601
 C   -0.114930614370   -1.081197955032   -2.393299089601
 O   -0.054383614370    0.299263044968   -2.393299089601
 H   -0.957514614370    0.647690044968   -2.393299089601
RB    0.117984128449    2.219940196303    2.650636738855
