14

 C   -0.100561756514   -3.930220394102   -2.481939796623
 H   -0.092839756514   -5.023395394102   -2.481939796623
 C    1.109914243486   -3.210381394102   -2.481939796623
 H    2.064933243486   -3.744080394102   -2.481939796623
 C   -1.320385756514   -3.230214394102   -2.481939796623
 H   -2.268517756514   -3.776026394102   -2.481939796623
 C    1.107506243486   -1.805236394102   -2.481939796623
 H    2.038860243486   -1.232697394102   -2.481939796623
 C   -1.334236756514   -1.822733394102   -2.481939796623
 H   -2.286235756514   -1.280012394102   -2.481939796623
 C   -0.117959756514   -1.114951394102   -2.481939796623
 O   -0.057412756514    0.265509605898   -2.481939796623
 H   -0.960543756514    0.613936605898   -2.481939796623
RB    0.121338976779    2.257322948024    2.748808469923
