14

 C   -0.103590898659   -3.963973833171   -2.570580503645
 H   -0.095868898659   -5.057148833171   -2.570580503645
 C    1.106885101341   -3.244134833171   -2.570580503645
 H    2.061904101341   -3.777833833171   -2.570580503645
 C   -1.323414898659   -3.263967833171   -2.570580503645
 H   -2.271546898659   -3.809779833171   -2.570580503645
 C    1.104477101341   -1.838989833171   -2.570580503645
 H    2.035831101341   -1.266450833171   -2.570580503645
 C   -1.337265898659   -1.856486833171   -2.570580503645
 H   -2.289264898659   -1.313765833171   -2.570580503645
 C   -0.120988898659   -1.148704833171   -2.570580503645
 O   -0.060441898659    0.231756166829   -2.570580503645
 H   -0.963572898659    0.580183166829   -2.570580503645
RB    0.124693825110    2.294705699744    2.846980200992
