14

 C   -0.108134611875   -4.014603991775   -2.703541564178
 H   -0.100412611875   -5.107778991775   -2.703541564178
 C    1.102341388125   -3.294764991775   -2.703541564178
 H    2.057360388125   -3.828463991775   -2.703541564178
 C   -1.327958611875   -3.314597991775   -2.703541564178
 H   -2.276090611875   -3.860409991775   -2.703541564178
 C    1.099933388125   -1.889619991775   -2.703541564178
 H    2.031287388125   -1.317080991775   -2.703541564178
 C   -1.341809611875   -1.907116991775   -2.703541564178
 H   -2.293808611875   -1.364395991775   -2.703541564178
 C   -0.125532611875   -1.199334991775   -2.703541564178
 O   -0.064985611875    0.181126008225   -2.703541564178
 H   -0.968116611875    0.529553008225   -2.703541564178
RB    0.129726097606    2.350779827326    2.994237797595
