14

 C   -0.112678325092   -4.065234150379   -2.836502624712
 H   -0.104956325092   -5.158409150379   -2.836502624712
 C    1.097797674908   -3.345395150379   -2.836502624712
 H    2.052816674908   -3.879094150379   -2.836502624712
 C   -1.332502325092   -3.365228150379   -2.836502624712
 H   -2.280634325092   -3.911040150379   -2.836502624712
 C    1.095389674908   -1.940250150379   -2.836502624712
 H    2.026743674908   -1.367711150379   -2.836502624712
 C   -1.346353325092   -1.957747150379   -2.836502624712
 H   -2.298352325092   -1.415026150379   -2.836502624712
 C   -0.130076325092   -1.249965150379   -2.836502624712
 O   -0.069529325092    0.130495849621   -2.836502624712
 H   -0.972660325092    0.478922849621   -2.836502624712
RB    0.134758370101    2.406853954907    3.141495394198
