14

 C   -0.118736609380   -4.132741028518   -3.013784038756
 H   -0.111014609380   -5.225916028518   -3.013784038756
 C    1.091739390620   -3.412902028518   -3.013784038756
 H    2.046758390620   -3.946601028518   -3.013784038756
 C   -1.338560609380   -3.432735028518   -3.013784038756
 H   -2.286692609380   -3.978547028518   -3.013784038756
 C    1.089331390620   -2.007757028518   -3.013784038756
 H    2.020685390620   -1.435218028518   -3.013784038756
 C   -1.352411609380   -2.025254028518   -3.013784038756
 H   -2.304410609380   -1.482533028518   -3.013784038756
 C   -0.136134609380   -1.317472028518   -3.013784038756
 O   -0.075587609380    0.062988971482   -3.013784038756
 H   -0.978718609380    0.411415971482   -3.013784038756
RB    0.141468066762    2.481619458348    3.337838856335
