14

 C   -0.123280322597   -4.183371187122   -3.146745099290
 H   -0.115558322597   -5.276546187122   -3.146745099290
 C    1.087195677403   -3.463532187122   -3.146745099290
 H    2.042214677403   -3.997231187122   -3.146745099290
 C   -1.343104322597   -3.483365187122   -3.146745099290
 H   -2.291236322597   -4.029177187122   -3.146745099290
 C    1.084787677403   -2.058387187122   -3.146745099290
 H    2.016141677403   -1.485848187122   -3.146745099290
 C   -1.356955322597   -2.075884187122   -3.146745099290
 H   -2.308954322597   -1.533163187122   -3.146745099290
 C   -0.140678322597   -1.368102187122   -3.146745099290
 O   -0.080131322597    0.012358812878   -3.146745099290
 H   -0.983262322597    0.360785812878   -3.146745099290
RB    0.146500339258    2.537693585929    3.485096452938
