14

 C   -0.126309464741   -4.217124626192   -3.235385806312
 H   -0.118587464741   -5.310299626192   -3.235385806312
 C    1.084166535259   -3.497285626192   -3.235385806312
 H    2.039185535259   -4.030984626192   -3.235385806312
 C   -1.346133464741   -3.517118626192   -3.235385806312
 H   -2.294265464741   -4.062930626192   -3.235385806312
 C    1.081758535259   -2.092140626192   -3.235385806312
 H    2.013112535259   -1.519601626192   -3.235385806312
 C   -1.359984464741   -2.109637626192   -3.235385806312
 H   -2.311983464741   -1.566916626192   -3.235385806312
 C   -0.143707464741   -1.401855626192   -3.235385806312
 O   -0.083160464741   -0.021394626192   -3.235385806312
 H   -0.986291464741    0.327032373808   -3.235385806312
RB    0.149855187588    2.575076337650    3.583268184007
