14

 C   -0.130853177958   -4.267754784796   -3.368346866845
 H   -0.123131177958   -5.360929784796   -3.368346866845
 C    1.079622822042   -3.547915784796   -3.368346866845
 H    2.034641822042   -4.081614784796   -3.368346866845
 C   -1.350677177958   -3.567748784796   -3.368346866845
 H   -2.298809177958   -4.113560784796   -3.368346866845
 C    1.077214822042   -2.142770784796   -3.368346866845
 H    2.008568822042   -1.570231784796   -3.368346866845
 C   -1.364528177958   -2.160267784796   -3.368346866845
 H   -2.316527177958   -1.617546784796   -3.368346866845
 C   -0.148251177958   -1.452485784796   -3.368346866845
 O   -0.087704177958   -0.072024784796   -3.368346866845
 H   -0.990835177958    0.276402215204   -3.368346866845
RB    0.154887460084    2.631150465231    3.730525780610
