14

 C   -0.135396891174   -4.318384943400   -3.501307927379
 H   -0.127674891174   -5.411559943400   -3.501307927379
 C    1.075079108826   -3.598545943400   -3.501307927379
 H    2.030098108826   -4.132244943400   -3.501307927379
 C   -1.355220891174   -3.618378943400   -3.501307927379
 H   -2.303352891174   -4.164190943400   -3.501307927379
 C    1.072671108826   -2.193400943400   -3.501307927379
 H    2.004025108826   -1.620861943400   -3.501307927379
 C   -1.369071891174   -2.210897943400   -3.501307927379
 H   -2.321070891174   -1.668176943400   -3.501307927379
 C   -0.152794891174   -1.503115943400   -3.501307927379
 O   -0.092247891174   -0.122654943400   -3.501307927379
 H   -0.995378891174    0.225772056600   -3.501307927379
RB    0.159919732579    2.687224592813    3.877783377213
