14

 C   -0.141455175463   -4.385891821539   -3.678589341423
 H   -0.133733175463   -5.479066821539   -3.678589341423
 C    1.069020824537   -3.666052821539   -3.678589341423
 H    2.024039824537   -4.199751821539   -3.678589341423
 C   -1.361279175463   -3.685885821539   -3.678589341423
 H   -2.309411175463   -4.231697821539   -3.678589341423
 C    1.066612824537   -2.260907821539   -3.678589341423
 H    1.997966824537   -1.688368821539   -3.678589341423
 C   -1.375130175463   -2.278404821539   -3.678589341423
 H   -2.327129175463   -1.735683821539   -3.678589341423
 C   -0.158853175463   -1.570622821539   -3.678589341423
 O   -0.098306175463   -0.190161821539   -3.678589341423
 H   -1.001437175463    0.158265178461   -3.678589341423
RB    0.166629429240    2.761990096254    4.074126839351
