14

 C   -0.145998888679   -4.436521980143   -3.811550401957
 H   -0.138276888679   -5.529696980143   -3.811550401957
 C    1.064477111321   -3.716682980143   -3.811550401957
 H    2.019496111321   -4.250381980143   -3.811550401957
 C   -1.365822888679   -3.736515980143   -3.811550401957
 H   -2.313954888679   -4.282327980143   -3.811550401957
 C    1.062069111321   -2.311537980143   -3.811550401957
 H    1.993423111321   -1.738998980143   -3.811550401957
 C   -1.379673888679   -2.329034980143   -3.811550401957
 H   -2.331672888679   -1.786313980143   -3.811550401957
 C   -0.163396888679   -1.621252980143   -3.811550401957
 O   -0.102849888679   -0.240791980143   -3.811550401957
 H   -1.005980888679    0.107635019857   -3.811550401957
RB    0.171661701736    2.818064223835    4.221384435954
