14

 C   -0.147513459751   -4.453398699678   -3.855870755468
 H   -0.139791459751   -5.546573699678   -3.855870755468
 C    1.062962540249   -3.733559699678   -3.855870755468
 H    2.017981540249   -4.267258699678   -3.855870755468
 C   -1.367337459751   -3.753392699678   -3.855870755468
 H   -2.315469459751   -4.299204699678   -3.855870755468
 C    1.060554540249   -2.328414699678   -3.855870755468
 H    1.991908540249   -1.755875699678   -3.855870755468
 C   -1.381188459751   -2.345911699678   -3.855870755468
 H   -2.333187459751   -1.803190699678   -3.855870755468
 C   -0.164911459751   -1.638129699678   -3.855870755468
 O   -0.104364459751   -0.257668699678   -3.855870755468
 H   -1.007495459751    0.090758300322   -3.855870755468
RB    0.173339125901    2.836755599696    4.270470301488
