14

 C   -0.152057172968   -4.504028858282   -3.988831816001
 H   -0.144335172968   -5.597203858282   -3.988831816001
 C    1.058418827032   -3.784189858282   -3.988831816001
 H    2.013437827032   -4.317888858282   -3.988831816001
 C   -1.371881172968   -3.804022858282   -3.988831816001
 H   -2.320013172968   -4.349834858282   -3.988831816001
 C    1.056010827032   -2.379044858282   -3.988831816001
 H    1.987364827032   -1.806505858282   -3.988831816001
 C   -1.385732172968   -2.396541858282   -3.988831816001
 H   -2.337731172968   -1.853820858282   -3.988831816001
 C   -0.169455172968   -1.688759858282   -3.988831816001
 O   -0.108908172968   -0.308298858282   -3.988831816001
 H   -1.012039172968    0.040128141718   -3.988831816001
RB    0.178371398397    2.892829727277    4.417727898091
