14

 C   -0.156600886184   -4.554659016886   -4.121792876534
 H   -0.148878886184   -5.647834016886   -4.121792876534
 C    1.053875113816   -3.834820016886   -4.121792876534
 H    2.008894113816   -4.368519016886   -4.121792876534
 C   -1.376424886184   -3.854653016886   -4.121792876534
 H   -2.324556886184   -4.400465016886   -4.121792876534
 C    1.051467113816   -2.429675016886   -4.121792876534
 H    1.982821113816   -1.857136016886   -4.121792876534
 C   -1.390275886184   -2.447172016886   -4.121792876534
 H   -2.342274886184   -1.904451016886   -4.121792876534
 C   -0.173998886184   -1.739390016886   -4.121792876534
 O   -0.113451886184   -0.358929016886   -4.121792876534
 H   -1.016582886184   -0.010502016886   -4.121792876534
RB    0.183403670893    2.948903854858    4.564985494694
