17

 N   -1.910763935442   -0.955578339666   -0.002729406516
 C   -0.700575868598   -0.300372135990    0.001232217452
 N    0.532836545705   -0.899049830452    0.013270502357
 C    1.503259745761   -0.008873688841    0.001398045384
 N    1.300182908348    1.352764444673   -0.005437114958
 H    2.104010033599    1.972724984428   -0.087425137380
 N    2.828714499998   -0.427548410521   -0.076949257851
 H    3.483250705330    0.104254813879    0.490691518879
 H    2.907519587389   -1.428248554456    0.084634080138
 C    0.040909166031    2.038798148204    0.007516671719
 O    0.013328796926    3.266971232981    0.003428543291
 C   -1.031875959945    1.065104758930    0.013717869659
 N   -2.402949261714    1.251435804243    0.013642684943
 C   -2.896472756225    0.012832790198    0.003312585278
 H   -3.953970669493   -0.241313831634    0.000365940852
 H   -2.035860931973   -1.962161424898   -0.011388957547
 K    0.754701421280   -2.281282345674   -0.001195003202
