17

 N   -1.927012208306   -0.854350549503   -0.001670025301
 C   -0.716824141462   -0.199144345827    0.002291598667
 N    0.516588272841   -0.797822040289    0.014329883572
 C    1.487011472897    0.092354101322    0.002457426599
 N    1.283934635484    1.453992234836   -0.004377733743
 H    2.087761760735    2.073952774591   -0.086365756165
 N    2.812466227134   -0.326320620358   -0.075889876636
 H    3.467002432466    0.205482604042    0.491750900094
 H    2.891271314525   -1.327020764293    0.085693461353
 C    0.024660893167    2.140025938367    0.008576052934
 O   -0.002919475938    3.368199023144    0.004487924506
 C   -1.048124232809    1.166332549093    0.014777250874
 N   -2.419197534578    1.352663594406    0.014702066158
 C   -2.912721029089    0.114060580361    0.004371966493
 H   -3.970218942357   -0.140086041471    0.001425322067
 H   -2.052109204837   -1.860933634735   -0.010329576332
 K    0.817690603978   -2.673709025233   -0.005301873972
