17

 N   -1.936761172025   -0.793613875406   -0.001034396572
 C   -0.726573105181   -0.138407671730    0.002927227396
 N    0.506839309122   -0.737085366192    0.014965512301
 C    1.477262509178    0.153090775419    0.003093055328
 N    1.274185671765    1.514728908933   -0.003742105014
 H    2.078012797016    2.134689448688   -0.085730127436
 N    2.802717263415   -0.265583946261   -0.075254247907
 H    3.457253468747    0.266219278139    0.492386528823
 H    2.881522350806   -1.266284090196    0.086329090082
 C    0.014911929448    2.200762612464    0.009211681663
 O   -0.012668439657    3.428935697241    0.005123553235
 C   -1.057873196528    1.227069223190    0.015412879603
 N   -2.428946498297    1.413400268503    0.015337694887
 C   -2.922469992808    0.174797254458    0.005007595222
 H   -3.979967906076   -0.079349367374    0.002060950796
 H   -2.061858168556   -1.800196960638   -0.009693947603
 K    0.855484113597   -2.909165032968   -0.007765996434
