17

 N   -1.940010826597   -0.773368317373   -0.000822520329
 C   -0.729822759753   -0.118162113697    0.003139103639
 N    0.503589654550   -0.716839808159    0.015177388544
 C    1.474012854606    0.173336333452    0.003304931571
 N    1.270936017193    1.534974466966   -0.003530228771
 H    2.074763142444    2.154935006721   -0.085518251193
 N    2.799467608843   -0.245338388228   -0.075042371664
 H    3.454003814175    0.286464836172    0.492598405066
 H    2.878272696234   -1.246038532163    0.086540966325
 C    0.011662274876    2.221008170497    0.009423557906
 O   -0.015918094229    3.449181255274    0.005335429478
 C   -1.061122851100    1.247314781223    0.015624755846
 N   -2.432196152869    1.433645826536    0.015549571130
 C   -2.925719647380    0.195042812491    0.005219471465
 H   -3.983217560648   -0.059103809341    0.002272827039
 H   -2.065107823128   -1.779951402605   -0.009482071360
 K    0.868081950136   -2.987650368880   -0.008587370588
