17

 N   -1.943260481170   -0.753122759340   -0.000610644086
 C   -0.733072414326   -0.097916555664    0.003350979882
 N    0.500339999977   -0.696594250126    0.015389264787
 C    1.470763200033    0.193581891485    0.003516807814
 N    1.267686362620    1.555220024999   -0.003318352528
 H    2.071513487871    2.175180564754   -0.085306374950
 N    2.796217954270   -0.225092830195   -0.074830495421
 H    3.450754159602    0.306710394205    0.492810281309
 H    2.875023041661   -1.225792974130    0.086752842568
 C    0.008412620303    2.241253728530    0.009635434149
 O   -0.019167748802    3.469426813307    0.005547305721
 C   -1.064372505673    1.267560339256    0.015836632089
 N   -2.435445807442    1.453891384569    0.015761447373
 C   -2.928969301953    0.215288370524    0.005431347708
 H   -3.986467215221   -0.038858251308    0.002484703282
 H   -2.068357477701   -1.759705844572   -0.009270195117
 K    0.880679786676   -3.066135704792   -0.009408744742
