17

 N   -1.946510135743   -0.732877201308   -0.000398767843
 C   -0.736322068899   -0.077670997632    0.003562856125
 N    0.497090345404   -0.676348692094    0.015601141030
 C    1.467513545460    0.213827449517    0.003728684057
 N    1.264436708047    1.575465583031   -0.003106476285
 H    2.068263833298    2.195426122786   -0.085094498707
 N    2.792968299697   -0.204847272163   -0.074618619178
 H    3.447504505029    0.326955952237    0.493022157552
 H    2.871773387088   -1.205547416098    0.086964718811
 C    0.005162965730    2.261499286562    0.009847310392
 O   -0.022417403375    3.489672371339    0.005759181964
 C   -1.067622160246    1.287805897288    0.016048508332
 N   -2.438695462015    1.474136942601    0.015973323616
 C   -2.932218956526    0.235533928556    0.005643223951
 H   -3.989716869794   -0.018612693276    0.002696579525
 H   -2.071607132274   -1.739460286540   -0.009058318874
 K    0.893277623215   -3.144621040704   -0.010230118897
