17

 N   -1.956259099462   -0.672140527210    0.000236860885
 C   -0.746071032618   -0.016934323534    0.004198484853
 N    0.487341381685   -0.615612017996    0.016236769758
 C    1.457764581741    0.274564123615    0.004364312785
 N    1.254687744328    1.636202257129   -0.002470847557
 H    2.058514869579    2.256162796884   -0.084458869979
 N    2.783219335978   -0.144110598065   -0.073982990450
 H    3.437755541310    0.387692626335    0.493657786280
 H    2.862024423369   -1.144810742000    0.087600347539
 C   -0.004585997989    2.322235960660    0.010482939120
 O   -0.032166367094    3.550409045437    0.006394810692
 C   -1.077371123965    1.348542571386    0.016684137060
 N   -2.448444425734    1.534873616699    0.016608952344
 C   -2.941967920245    0.296270602654    0.006278852679
 H   -3.999465833513    0.042123980822    0.003332208253
 H   -2.081356095993   -1.678723612442   -0.008422690146
 K    0.931071132834   -3.380077048439   -0.012694241359
