17

 N   -1.962758408607   -0.631649411145    0.000660613371
 C   -0.752570341763    0.023556792531    0.004622237339
 N    0.480842072540   -0.575120901931    0.016660522244
 C    1.451265272596    0.315055239680    0.004788065271
 N    1.248188435183    1.676693373194   -0.002047095071
 H    2.052015560434    2.296653912949   -0.084035117493
 N    2.776720026833   -0.103619482000   -0.073559237964
 H    3.431256232165    0.428183742400    0.494081538766
 H    2.855525114224   -1.104319625935    0.088024100025
 C   -0.011085307134    2.362727076725    0.010906691606
 O   -0.038665676239    3.590900161502    0.006818563178
 C   -1.083870433110    1.389033687451    0.017107889546
 N   -2.454943734879    1.575364732764    0.017032704830
 C   -2.948467229390    0.336761718719    0.006702605165
 H   -4.005965142658    0.082615096887    0.003755960739
 H   -2.087855405138   -1.638232496377   -0.007998937660
 K    0.956266805913   -3.537047720262   -0.014336989667
