17

 N   -1.966008063180   -0.611403853112    0.000872489614
 C   -0.755819996336    0.043802350564    0.004834113582
 N    0.477592417967   -0.554875343898    0.016872398487
 C    1.448015618023    0.335300797713    0.004999941514
 N    1.244938780610    1.696938931227   -0.001835218828
 H    2.048765905861    2.316899470982   -0.083823241250
 N    2.773470372260   -0.083373923967   -0.073347361721
 H    3.428006577592    0.448429300433    0.494293415009
 H    2.852275459651   -1.084074067902    0.088235976268
 C   -0.014334961707    2.382972634758    0.011118567849
 O   -0.041915330812    3.611145719535    0.007030439421
 C   -1.087120087683    1.409279245484    0.017319765789
 N   -2.458193389452    1.595610290797    0.017244581073
 C   -2.951716883963    0.357007276752    0.006914481408
 H   -4.009214797231    0.102860654920    0.003967836982
 H   -2.091105059711   -1.617986938344   -0.007787061417
 K    0.968864642453   -3.615533056174   -0.015158363821
