17

 N   -1.979006681472   -0.530421620982    0.001719994586
 C   -0.768818614628    0.124784582694    0.005681618554
 N    0.464593799675   -0.473893111768    0.017719903459
 C    1.435016999731    0.416283029843    0.005847446486
 N    1.231940162318    1.777921163357   -0.000987713856
 H    2.035767287569    2.397881703112   -0.082975736278
 N    2.760471753968   -0.002391691837   -0.072499856749
 H    3.415007959300    0.529411532563    0.495140919981
 H    2.839276841359   -1.003091835772    0.089083481240
 C   -0.027333579999    2.463954866888    0.011966072821
 O   -0.054913949104    3.692127951665    0.007877944393
 C   -1.100118705975    1.490261477614    0.018167270761
 N   -2.471192007744    1.676592522927    0.018092086045
 C   -2.964715502255    0.437989508882    0.007761986380
 H   -4.022213415523    0.183842887050    0.004815341954
 H   -2.104103678003   -1.537004706214   -0.006939556445
 K    1.019255988611   -3.929474399821   -0.018443860437
