17

 N   -1.985505990617   -0.489930504917    0.002143747072
 C   -0.775317923773    0.165275698759    0.006105371040
 N    0.458094490530   -0.433401995703    0.018143655945
 C    1.428517690586    0.456774145908    0.006271198972
 N    1.225440853173    1.818412279422   -0.000563961370
 H    2.029267978424    2.438372819177   -0.082551983792
 N    2.753972444823    0.038099424228   -0.072076104263
 H    3.408508650155    0.569902648628    0.495564672467
 H    2.832777532214   -0.962600719707    0.089507233726
 C   -0.033832889144    2.504445982953    0.012389825307
 O   -0.061413258249    3.732619067730    0.008301696879
 C   -1.106618015120    1.530752593679    0.018591023247
 N   -2.477691316889    1.717083638992    0.018515838531
 C   -2.971214811400    0.478480624947    0.008185738866
 H   -4.028712724668    0.224334003115    0.005239094440
 H   -2.110602987148   -1.496513590149   -0.006515803959
 K    1.044451661691   -4.086445071645   -0.020086608745
