17

 N   -1.988755645190   -0.469684946884    0.002355623315
 C   -0.778567578346    0.185521256792    0.006317247283
 N    0.454844835957   -0.413156437670    0.018355532188
 C    1.425268036013    0.477019703941    0.006483075215
 N    1.222191198600    1.838657837455   -0.000352085127
 H    2.026018323851    2.458618377210   -0.082340107549
 N    2.750722790250    0.058344982261   -0.071864228020
 H    3.405258995582    0.590148206661    0.495776548710
 H    2.829527877641   -0.942355161674    0.089719109969
 C   -0.037082543717    2.524691540986    0.012601701550
 O   -0.064662912822    3.752864625763    0.008513573122
 C   -1.109867669693    1.550998151712    0.018802899490
 N   -2.480940971462    1.737329197025    0.018727714774
 C   -2.974464465973    0.498726182980    0.008397615109
 H   -4.031962379241    0.244579561148    0.005450970683
 H   -2.113852641721   -1.476268032116   -0.006303927716
 K    1.057049498230   -4.164930407557   -0.020907982899
