17

 N   -1.998504608909   -0.408948272786    0.002991252044
 C   -0.788316542065    0.246257930890    0.006952876012
 N    0.445095872238   -0.352419763572    0.018991160917
 C    1.415519072294    0.537756378039    0.007118703944
 N    1.212442234881    1.899394511553    0.000283543602
 H    2.016269360132    2.519355051308   -0.081704478820
 N    2.740973826531    0.119081656359   -0.071228599291
 H    3.395510031863    0.650884880759    0.496412177439
 H    2.819778913922   -0.881618487576    0.090354738698
 C   -0.046831507436    2.585428215084    0.013237330279
 O   -0.074411876541    3.813601299861    0.009149201851
 C   -1.119616633412    1.611734825810    0.019438528219
 N   -2.490689935181    1.798065871123    0.019363343503
 C   -2.984213429692    0.559462857078    0.009033243838
 H   -4.041711342960    0.305316235246    0.006086599412
 H   -2.123601605440   -1.415531358018   -0.005668298987
 K    1.094843007849   -4.400386415292   -0.023372105361
