17

 N   -2.005003918054   -0.368457156721    0.003415004530
 C   -0.794815851210    0.286749046955    0.007376628498
 N    0.438596563093   -0.311928647507    0.019414913403
 C    1.409019763149    0.578247494104    0.007542456430
 N    1.205942925736    1.939885627618    0.000707296088
 H    2.009770050987    2.559846167373   -0.081280726334
 N    2.734474517386    0.159572772424   -0.070804846805
 H    3.389010722718    0.691375996824    0.496835929925
 H    2.813279604777   -0.841127371511    0.090778491184
 C   -0.053330816581    2.625919331149    0.013661082765
 O   -0.080911185686    3.854092415926    0.009572954337
 C   -1.126115942557    1.652225941875    0.019862280705
 N   -2.497189244326    1.838556987188    0.019787095989
 C   -2.990712738837    0.599953973143    0.009456996324
 H   -4.048210652105    0.345807351311    0.006510351898
 H   -2.130100914585   -1.375040241953   -0.005244546501
 K    1.120038680928   -4.557357087116   -0.025014853670
