17

 N   -2.011503227200   -0.327966040656    0.003838757016
 C   -0.801315160356    0.327240163020    0.007800380984
 N    0.432097253947   -0.271437531442    0.019838665889
 C    1.402520454003    0.618738610169    0.007966208916
 N    1.199443616590    1.980376743683    0.001131048574
 H    2.003270741841    2.600337283438   -0.080856973848
 N    2.727975208240    0.200063888489   -0.070381094319
 H    3.382511413572    0.731867112889    0.497259682411
 H    2.806780295631   -0.800636255446    0.091202243670
 C   -0.059830125727    2.666410447214    0.014084835251
 O   -0.087410494832    3.894583531991    0.009996706823
 C   -1.132615251703    1.692717057940    0.020286033191
 N   -2.503688553472    1.879048103253    0.020210848475
 C   -2.997212047983    0.640445089208    0.009880748810
 H   -4.054709961251    0.386298467376    0.006934104384
 H   -2.136600223731   -1.334549125888   -0.004820794015
 K    1.145234354007   -4.714327758939   -0.026657601978
