17

 N   -2.018002536346   -0.287474924591    0.004262509502
 C   -0.807814469502    0.367731279085    0.008224133470
 N    0.425597944801   -0.230946415377    0.020262418375
 C    1.396021144857    0.659229726234    0.008389961402
 N    1.192944307444    2.020867859748    0.001554801060
 H    1.996771432695    2.640828399503   -0.080433221362
 N    2.721475899094    0.240555004554   -0.069957341833
 H    3.376012104426    0.772358228954    0.497683434897
 H    2.800280986485   -0.760145139381    0.091625996156
 C   -0.066329434873    2.706901563279    0.014508587737
 O   -0.093909803978    3.935074648056    0.010420459309
 C   -1.139114560849    1.733208174005    0.020709785677
 N   -2.510187862618    1.919539219318    0.020634600961
 C   -3.003711357129    0.680936205273    0.010304501296
 H   -4.061209270397    0.426789583441    0.007357856870
 H   -2.143099532877   -1.294058009823   -0.004397041529
 K    1.170430027087   -4.871298430763   -0.028300350286
