17

 N   -2.021252190919   -0.267229366558    0.004474385745
 C   -0.811064124075    0.387976837118    0.008436009713
 N    0.422348290228   -0.210700857344    0.020474294618
 C    1.392771490284    0.679475284267    0.008601837645
 N    1.189694652871    2.041113417781    0.001766677303
 H    1.993521778122    2.661073957536   -0.080221345119
 N    2.718226244521    0.260800562587   -0.069745465590
 H    3.372762449853    0.792603786987    0.497895311140
 H    2.797031331912   -0.739899581348    0.091837872399
 C   -0.069579089446    2.727147121312    0.014720463980
 O   -0.097159458551    3.955320206089    0.010632335552
 C   -1.142364215422    1.753453732038    0.020921661920
 N   -2.513437517191    1.939784777351    0.020846477204
 C   -3.006961011702    0.701181763306    0.010516377539
 H   -4.064458924970    0.447035141474    0.007569733113
 H   -2.146349187450   -1.273812451790   -0.004185165286
 K    1.183027863626   -4.949783766675   -0.029121724440
