17

 N   -2.024501845492   -0.246983808526    0.004686261988
 C   -0.814313778648    0.408222395150    0.008647885956
 N    0.419098635655   -0.190455299312    0.020686170861
 C    1.389521835711    0.699720842299    0.008813713888
 N    1.186444998298    2.061358975813    0.001978553546
 H    1.990272123549    2.681319515568   -0.080009468876
 N    2.714976589948    0.281046120619   -0.069533589347
 H    3.369512795280    0.812849345019    0.498107187383
 H    2.793781677339   -0.719654023316    0.092049748642
 C   -0.072828744019    2.747392679344    0.014932340223
 O   -0.100409113124    3.975565764121    0.010844211795
 C   -1.145613869995    1.773699290070    0.021133538163
 N   -2.516687171764    1.960030335383    0.021058353447
 C   -3.010210666275    0.721427321338    0.010728253782
 H   -4.067708579543    0.467280699506    0.007781609356
 H   -2.149598842023   -1.253566893758   -0.003973289043
 K    1.195625700166   -5.028269102586   -0.029943098594
