17

 N   -2.027751500064   -0.226738250493    0.004898138231
 C   -0.817563433220    0.428467953183    0.008859762199
 N    0.415848981083   -0.170209741279    0.020898047104
 C    1.386272181139    0.719966400332    0.009025590131
 N    1.183195343726    2.081604533846    0.002190429789
 H    1.987022468977    2.701565073601   -0.079797592633
 N    2.711726935376    0.301291678652   -0.069321713104
 H    3.366263140708    0.833094903052    0.498319063626
 H    2.790532022767   -0.699408465283    0.092261624885
 C   -0.076078398591    2.767638237377    0.015144216466
 O   -0.103658767696    3.995811322154    0.011056088038
 C   -1.148863524567    1.793944848103    0.021345414406
 N   -2.519936826336    1.980275893416    0.021270229690
 C   -3.013460320847    0.741672879371    0.010940130025
 H   -4.070958234115    0.487526257539    0.007993485599
 H   -2.152848496595   -1.233321335725   -0.003761412800
 K    1.208223536706   -5.106754438498   -0.030764472748
