17

 N   -2.031001154637   -0.206492692460    0.005110014474
 C   -0.820813087793    0.448713511216    0.009071638442
 N    0.412599326510   -0.149964183246    0.021109923347
 C    1.383022526566    0.740211958365    0.009237466374
 N    1.179945689153    2.101850091879    0.002402306032
 H    1.983772814404    2.721810631634   -0.079585716390
 N    2.708477280803    0.321537236685   -0.069109836861
 H    3.363013486135    0.853340461085    0.498530939869
 H    2.787282368194   -0.679162907250    0.092473501128
 C   -0.079328053164    2.787883795410    0.015356092709
 O   -0.106908422269    4.016056880187    0.011267964281
 C   -1.152113179140    1.814190406136    0.021557290649
 N   -2.523186480909    2.000521451449    0.021482105933
 C   -3.016709975420    0.761918437404    0.011152006268
 H   -4.074207888688    0.507771815572    0.008205361842
 H   -2.156098151168   -1.213075777692   -0.003549536557
 K    1.220821373245   -5.185239774410   -0.031585846902
