17

 N   -2.043999772929   -0.125510460330    0.005957519446
 C   -0.833811706085    0.529695743346    0.009919143414
 N    0.399600708218   -0.068981951116    0.021957428319
 C    1.370023908274    0.821194190495    0.010084971346
 N    1.166947070861    2.182832324009    0.003249811004
 H    1.970774196112    2.802792863764   -0.078738211418
 N    2.695478662511    0.402519468815   -0.068262331889
 H    3.350014867843    0.934322693215    0.499378444841
 H    2.774283749902   -0.598180675120    0.093321006100
 C   -0.092326671456    2.868866027540    0.016203597681
 O   -0.119907040561    4.097039112317    0.012115469253
 C   -1.165111797432    1.895172638266    0.022404795621
 N   -2.536185099201    2.081503683579    0.022329610905
 C   -3.029708593712    0.842900669534    0.011999511240
 H   -4.087206506980    0.588754047702    0.009052866814
 H   -2.169096769460   -1.132093545562   -0.002702031585
 K    1.271212719404   -5.499181118057   -0.034871343518
