17

 N   -2.060248045793   -0.024282670167    0.007016900661
 C   -0.850059978949    0.630923533509    0.010978524629
 N    0.383352435354    0.032245839047    0.023016809534
 C    1.353775635410    0.922421980658    0.011144352561
 N    1.150698797997    2.284060114172    0.004309192219
 H    1.954525923248    2.904020653927   -0.077678830203
 N    2.679230389647    0.503747258978   -0.067202950674
 H    3.333766594979    1.035550483378    0.500437826056
 H    2.758035477038   -0.496952884957    0.094380387315
 C   -0.108574944320    2.970093817703    0.017262978896
 O   -0.136155313425    4.198266902480    0.013174850468
 C   -1.181360070296    1.996400428429    0.023464176836
 N   -2.552433372065    2.182731473742    0.023388992120
 C   -3.045956866576    0.944128459697    0.013058892455
 H   -4.103454779844    0.689981837865    0.010112248029
 H   -2.185345042324   -1.030865755399   -0.001642650370
 K    1.334201902102   -5.891607797616   -0.038978214288
