17

 N   -2.063497700366   -0.004037112134    0.007228776904
 C   -0.853309633522    0.651169091542    0.011190400872
 N    0.380102780781    0.052491397080    0.023228685777
 C    1.350525980837    0.942667538691    0.011356228804
 N    1.147449143424    2.304305672205    0.004521068462
 H    1.951276268675    2.924266211960   -0.077466953960
 N    2.675980735074    0.523992817011   -0.066991074431
 H    3.330516940406    1.055796041411    0.500649702299
 H    2.754785822465   -0.476707326924    0.094592263558
 C   -0.111824598893    2.990339375736    0.017474855139
 O   -0.139404967998    4.218512460513    0.013386726711
 C   -1.184609724869    2.016645986462    0.023676053079
 N   -2.555683026638    2.202977031775    0.023600868363
 C   -3.049206521149    0.964374017730    0.013270768698
 H   -4.106704434417    0.710227395898    0.010324124272
 H   -2.188594696897   -1.010620197366   -0.001430774127
 K    1.346799738641   -5.970093133528   -0.039799588443
