17

 N   -2.073246664084    0.056699561963    0.007864405633
 C   -0.863058597240    0.711905765639    0.011826029601
 N    0.370353817063    0.113228071177    0.023864314506
 C    1.340777017119    1.003404212788    0.011991857533
 N    1.137700179706    2.365042346302    0.005156697191
 H    1.941527304957    2.985002886057   -0.076831325231
 N    2.666231771356    0.584729491108   -0.066355445702
 H    3.320767976688    1.116532715508    0.501285331028
 H    2.745036858747   -0.415970652827    0.095227892287
 C   -0.121573562611    3.051076049833    0.018110483868
 O   -0.149153931716    4.279249134610    0.014022355440
 C   -1.194358688587    2.077382660559    0.024311681808
 N   -2.565431990356    2.263713705872    0.024236497092
 C   -3.058955484867    1.025110691827    0.013906397427
 H   -4.116453398135    0.770964069995    0.010959753001
 H   -2.198343660615   -0.949883523269   -0.000795145398
 K    1.384593248260   -6.205549141263   -0.042263710905
