17

 N   -2.079745973230    0.097190678029    0.008288158119
 C   -0.869557906386    0.752396881705    0.012249782087
 N    0.363854507917    0.153719187243    0.024288066992
 C    1.334277707973    1.043895328854    0.012415610019
 N    1.131200870560    2.405533462368    0.005580449677
 H    1.935027995811    3.025494002123   -0.076407572745
 N    2.659732462210    0.625220607174   -0.065931693216
 H    3.314268667542    1.157023831574    0.501709083514
 H    2.738537549601   -0.375479536761    0.095651644773
 C   -0.128072871757    3.091567165899    0.018534236354
 O   -0.155653240862    4.319740250676    0.014446107926
 C   -1.200857997733    2.117873776625    0.024735434294
 N   -2.571931299502    2.304204821938    0.024660249578
 C   -3.065454794013    1.065601807893    0.014330149913
 H   -4.122952707281    0.811455186061    0.011383505487
 H   -2.204842969761   -0.909392407203   -0.000371392912
 K    1.409788921339   -6.362519813087   -0.043906459213
