17

 N   -2.082995627803    0.117436236061    0.008500034362
 C   -0.872807560959    0.772642439737    0.012461658330
 N    0.360604853344    0.173964745275    0.024499943235
 C    1.331028053400    1.064140886886    0.012627486262
 N    1.127951215987    2.425779020400    0.005792325920
 H    1.931778341238    3.045739560155   -0.076195696502
 N    2.656482807637    0.645466165206   -0.065719816973
 H    3.311019012969    1.177269389606    0.501920959757
 H    2.735287895028   -0.355233978729    0.095863521016
 C   -0.131322526330    3.111812723931    0.018746112597
 O   -0.158902895435    4.339985808708    0.014657984169
 C   -1.204107652306    2.138119334657    0.024947310537
 N   -2.575180954075    2.324450379970    0.024872125821
 C   -3.068704448586    1.085847365925    0.014542026156
 H   -4.126202361854    0.831700744093    0.011595381730
 H   -2.208092624334   -0.889146849171   -0.000159516669
 K    1.422386757879   -6.441005148999   -0.044727833367
