17

 N   -2.099243900667    0.218664026224    0.009559415577
 C   -0.889055833823    0.873870229900    0.013521039545
 N    0.344356580480    0.275192535438    0.025559324450
 C    1.314779780536    1.165368677049    0.013686867477
 N    1.111702943123    2.527006810563    0.006851707135
 H    1.915530068374    3.146967350318   -0.075136315287
 N    2.640234534773    0.746693955369   -0.064660435758
 H    3.294770740105    1.278497179769    0.502980340972
 H    2.719039622164   -0.254006188566    0.096922902231
 C   -0.147570799194    3.213040514094    0.019805493812
 O   -0.175151168299    4.441213598871    0.015717365384
 C   -1.220355925170    2.239347124820    0.026006691752
 N   -2.591429226939    2.425678170133    0.025931507036
 C   -3.084952721450    1.187075156088    0.015601407371
 H   -4.142450634718    0.932928534256    0.012654762945
 H   -2.224340897198   -0.787919059008    0.000899864546
 K    1.485375940577   -6.833431828558   -0.048834704137
