17

 N   -2.102493555240    0.238909584257    0.009771291820
 C   -0.892305488396    0.894115787933    0.013732915788
 N    0.341106925907    0.295438093471    0.025771200693
 C    1.311530125963    1.185614235082    0.013898743720
 N    1.108453288550    2.547252368596    0.007063583378
 H    1.912280413801    3.167212908351   -0.074924439044
 N    2.636984880200    0.766939513402   -0.064448559515
 H    3.291521085532    1.298742737802    0.503192217215
 H    2.715789967591   -0.233760630533    0.097134778474
 C   -0.150820453767    3.233286072127    0.020017370055
 O   -0.178400822872    4.461459156904    0.015929241627
 C   -1.223605579743    2.259592682853    0.026218567995
 N   -2.594678881512    2.445923728166    0.026143383279
 C   -3.088202376023    1.207320714121    0.015813283614
 H   -4.145700289291    0.953174092289    0.012866639188
 H   -2.227590551771   -0.767673500975    0.001111740789
 K    1.497973777116   -6.911917164469   -0.049656078291
