17

 N   -2.112242518959    0.299646258355    0.010406920549
 C   -0.902054452115    0.954852462031    0.014368544517
 N    0.331357962188    0.356174767569    0.026406829422
 C    1.301781162244    1.246350909180    0.014534372449
 N    1.098704324831    2.607989042694    0.007699212107
 H    1.902531450082    3.227949582449   -0.074288810315
 N    2.627235916481    0.827676187500   -0.063812930786
 H    3.281772121813    1.359479411900    0.503827845944
 H    2.706041003872   -0.173023956435    0.097770407203
 C   -0.160569417486    3.294022746225    0.020652998784
 O   -0.188149786591    4.522195831002    0.016564870356
 C   -1.233354543462    2.320329356951    0.026854196724
 N   -2.604427845231    2.506660402264    0.026779012008
 C   -3.097951339742    1.268057388219    0.016448912343
 H   -4.155449253010    1.013910766387    0.013502267917
 H   -2.237339515490   -0.706936826877    0.001747369518
 K    1.535767286735   -7.147373172205   -0.052120200753
