17

 N   -2.115492173531    0.319891816387    0.010618796792
 C   -0.905304106687    0.975098020063    0.014580420760
 N    0.328108307616    0.376420325601    0.026618705665
 C    1.298531507672    1.266596467212    0.014746248692
 N    1.095454670259    2.628234600726    0.007911088350
 H    1.899281795510    3.248195140481   -0.074076934072
 N    2.623986261909    0.847921745532   -0.063601054543
 H    3.278522467241    1.379724969932    0.504039722187
 H    2.702791349300   -0.152778398403    0.097982283446
 C   -0.163819072058    3.314268304257    0.020864875027
 O   -0.191399441163    4.542441389034    0.016776746599
 C   -1.236604198034    2.340574914983    0.027066072967
 N   -2.607677499803    2.526905960296    0.026990888251
 C   -3.101200994314    1.288302946251    0.016660788586
 H   -4.158698907582    1.034156324419    0.013714144160
 H   -2.240589170062   -0.686691268845    0.001959245761
 K    1.548365123275   -7.225858508117   -0.052941574907
