17

 N   -2.118741828104    0.340137374420    0.010830673035
 C   -0.908553761260    0.995343578096    0.014792297003
 N    0.324858653043    0.396665883634    0.026830581908
 C    1.295281853099    1.286842025245    0.014958124935
 N    1.092205015686    2.648480158759    0.008122964593
 H    1.896032140937    3.268440698514   -0.073865057829
 N    2.620736607336    0.868167303565   -0.063389178300
 H    3.275272812668    1.399970527965    0.504251598430
 H    2.699541694727   -0.132532840370    0.098194159689
 C   -0.167068726631    3.334513862290    0.021076751270
 O   -0.194649095736    4.562686947067    0.016988622842
 C   -1.239853852607    2.360820473016    0.027277949210
 N   -2.610927154376    2.547151518329    0.027202764494
 C   -3.104450648887    1.308548504284    0.016872664829
 H   -4.161948562155    1.054401882452    0.013926020403
 H   -2.243838824635   -0.666445710812    0.002171122004
 K    1.560962959814   -7.304343844028   -0.053762949061
