17

 N   -2.125241137250    0.380628490485    0.011254425521
 C   -0.915053070406    1.035834694161    0.015216049489
 N    0.318359343897    0.437156999699    0.027254334394
 C    1.288782543953    1.327333141310    0.015381877421
 N    1.085705706540    2.688971274824    0.008546717079
 H    1.889532831791    3.308931814579   -0.073441305343
 N    2.614237298190    0.908658419630   -0.062965425814
 H    3.268773503522    1.440461644030    0.504675350916
 H    2.693042385581   -0.092041724305    0.098617912175
 C   -0.173568035777    3.375004978355    0.021500503756
 O   -0.201148404882    4.603178063132    0.017412375328
 C   -1.246353161753    2.401311589081    0.027701701696
 N   -2.617426463522    2.587642634394    0.027626516980
 C   -3.110949958033    1.349039620349    0.017296417315
 H   -4.168447871301    1.094892998517    0.014349772889
 H   -2.250338133781   -0.625954594747    0.002594874490
 K    1.586158632894   -7.461314515852   -0.055405697370
