17

 N   -2.131740446396    0.421119606550    0.011678178007
 C   -0.921552379552    1.076325810226    0.015639801975
 N    0.311860034751    0.477648115764    0.027678086880
 C    1.282283234807    1.367824257375    0.015805629907
 N    1.079206397394    2.729462390889    0.008970469565
 H    1.883033522645    3.349422930644   -0.073017552857
 N    2.607737989044    0.949149535695   -0.062541673328
 H    3.262274194376    1.480952760095    0.505099103402
 H    2.686543076435   -0.051550608240    0.099041664661
 C   -0.180067344923    3.415496094420    0.021924256242
 O   -0.207647714028    4.643669179197    0.017836127814
 C   -1.252852470899    2.441802705146    0.028125454182
 N   -2.623925772668    2.628133750459    0.028050269466
 C   -3.117449267179    1.389530736414    0.017720169801
 H   -4.174947180447    1.135384114582    0.014773525375
 H   -2.256837442927   -0.585463478682    0.003018626976
 K    1.611354305973   -7.618285187675   -0.057048445678
