17

 N   -2.138239755541    0.461610722615    0.012101930493
 C   -0.928051688697    1.116816926291    0.016063554461
 N    0.305360725606    0.518139231829    0.028101839366
 C    1.275783925662    1.408315373440    0.016229382393
 N    1.072707088249    2.769953506954    0.009394222051
 H    1.876534213500    3.389914046709   -0.072593800371
 N    2.601238679899    0.989640651760   -0.062117920842
 H    3.255774885231    1.521443876160    0.505522855888
 H    2.680043767290   -0.011059492175    0.099465417147
 C   -0.186566654068    3.455987210485    0.022348008728
 O   -0.214147023173    4.684160295262    0.018259880300
 C   -1.259351780044    2.482293821211    0.028549206668
 N   -2.630425081813    2.668624866524    0.028474021952
 C   -3.123948576324    1.430021852479    0.018143922287
 H   -4.181446489592    1.175875230647    0.015197277861
 H   -2.263336752072   -0.544972362617    0.003442379462
 K    1.636549979052   -7.775255859499   -0.058691193986
