17

 N   -2.147988719260    0.522347396713    0.012737559222
 C   -0.937800652416    1.177553600389    0.016699183190
 N    0.295611761887    0.578875905927    0.028737468095
 C    1.266034961943    1.469052047538    0.016865011122
 N    1.062958124530    2.830690181052    0.010029850780
 H    1.866785249781    3.450650720807   -0.071958171642
 N    2.591489716180    1.050377325858   -0.061482292113
 H    3.246025921512    1.582180550258    0.506158484617
 H    2.670294803571    0.049677181923    0.100101045876
 C   -0.196315617787    3.516723884583    0.022983637457
 O   -0.223895986892    4.744896969360    0.018895509029
 C   -1.269100743763    2.543030495309    0.029184835397
 N   -2.640174045532    2.729361540622    0.029109650681
 C   -3.133697540043    1.490758526577    0.018779551016
 H   -4.191195453311    1.236611904745    0.015832906590
 H   -2.273085715791   -0.484235688519    0.004078008191
 K    1.674343488671   -8.010711867234   -0.061155316448
