17

 N   -2.164236992124    0.623575186876    0.013796940437
 C   -0.954048925280    1.278781390552    0.017758564405
 N    0.279363489023    0.680103696090    0.029796849310
 C    1.249786689079    1.570279837701    0.017924392337
 N    1.046709851666    2.931917971215    0.011089231995
 H    1.850536976917    3.551878510970   -0.070898790427
 N    2.575241443316    1.151605116021   -0.060422910898
 H    3.229777648648    1.683408340421    0.507217865832
 H    2.654046530707    0.150904972086    0.101160427091
 C   -0.212563890651    3.617951674746    0.024043018672
 O   -0.240144259756    4.846124759523    0.019954890244
 C   -1.285349016627    2.644258285472    0.030244216612
 N   -2.656422318396    2.830589330785    0.030169031896
 C   -3.149945812907    1.591986316740    0.019838932231
 H   -4.207443726175    1.337839694908    0.016892287805
 H   -2.289333988655   -0.383007898356    0.005137389406
 K    1.737332671369   -8.403138546793   -0.065262187218
