17

 N   -2.167486646697    0.643820744909    0.014008816680
 C   -0.957298579853    1.299026948585    0.017970440648
 N    0.276113834450    0.700349254123    0.030008725553
 C    1.246537034506    1.590525395734    0.018136268580
 N    1.043460197093    2.952163529248    0.011301108238
 H    1.847287322344    3.572124069003   -0.070686914184
 N    2.571991788743    1.171850674054   -0.060211034655
 H    3.226527994075    1.703653898454    0.507429742075
 H    2.650796876134    0.171150530119    0.101372303334
 C   -0.215813545224    3.638197232779    0.024254894915
 O   -0.243393914329    4.866370317556    0.020166766487
 C   -1.288598671200    2.664503843505    0.030456092855
 N   -2.659671972969    2.850834888818    0.030380908139
 C   -3.153195467480    1.612231874773    0.020050808474
 H   -4.210693380748    1.358085252941    0.017104164048
 H   -2.292583643228   -0.362762340323    0.005349265649
 K    1.749930507909   -8.481623882705   -0.066083561372
