17

 N   -2.183734919561    0.745048535072    0.015068197894
 C   -0.973546852717    1.400254738748    0.019029821862
 N    0.259865561586    0.801577044286    0.031068106767
 C    1.230288761642    1.691753185897    0.019195649794
 N    1.027211924229    3.053391319411    0.012360489452
 H    1.831039049480    3.673351859166   -0.069627532970
 N    2.555743515879    1.273078464217   -0.059151653441
 H    3.210279721211    1.804881688617    0.508489123289
 H    2.634548603270    0.272378320282    0.102431684548
 C   -0.232061818088    3.739425022942    0.025314276129
 O   -0.259642187193    4.967598107719    0.021226147701
 C   -1.304846944064    2.765731633668    0.031515474069
 N   -2.675920245833    2.952062678981    0.031440289353
 C   -3.169443740344    1.713459664936    0.021110189688
 H   -4.226941653612    1.459313043104    0.018163545262
 H   -2.308831916092   -0.261534550160    0.006408646863
 K    1.812919690607   -8.874050562264   -0.070190432143
