24

 C   -3.994324976916    0.894938158126    0.000000000000
 C   -2.767754976916    0.047388158126    0.000000000000
 O   -3.014954976916   -1.258681841874    0.000000000000
 C   -1.857224976916   -2.132981841874    0.000000000000
 O   -1.596554976916    0.483648158126    0.000000000000
 H   -3.711314976916    1.952098158126    0.000000000000
 H   -4.601764976916    0.658958158126    0.885690000000
 H   -4.601764976916    0.658958158126   -0.885690000000
 H   -2.260284976916   -3.148891841874    0.000000000000
 H   -1.254694976916   -1.962781841874    0.904460000000
 H   -1.254694976916   -1.962781841874   -0.904460000000
 K    0.132225023084    0.262158158126    1.840100000000
 K    0.132225023084    0.262158158126   -1.840100000000
 O    1.124117428179    0.135077645392    0.000000000000
 C    2.295320566260    0.571349626783    0.000000000000
 O    3.336729591530   -0.254708969557    0.000000000000
 C    3.033116978630   -1.673353736293    0.000000000000
 H    4.002574096935   -2.178002861297    0.000000000000
 H    2.466070589416   -1.938820883994    0.904462042803
 H    2.466070589416   -1.938820883994   -0.904462042803
 C    2.668498682269    2.014810932164    0.000000000000
 H    1.762839335474    2.629197308692    0.000000000000
 H    3.282290823500    2.233739964906    0.885691507234
 H    3.282290823500    2.233739964906   -0.885691507234
