24

 C   -4.059312767560    0.903264345235    0.000000000000
 C   -2.832742767560    0.055714345235    0.000000000000
 O   -3.079942767560   -1.250355654765    0.000000000000
 C   -1.922212767560   -2.124655654765    0.000000000000
 O   -1.661542767560    0.491974345235    0.000000000000
 H   -3.776302767560    1.960424345235    0.000000000000
 H   -4.666752767560    0.667284345235    0.885690000000
 H   -4.666752767560    0.667284345235   -0.885690000000
 H   -2.325272767560   -3.140565654765    0.000000000000
 H   -1.319682767560   -1.954455654765    0.904460000000
 H   -1.319682767560   -1.954455654765   -0.904460000000
 K    0.067237232440    0.270484345235    1.840100000000
 K    0.067237232440    0.270484345235   -1.840100000000
 O    1.257508118552    0.117987729954    0.000000000000
 C    2.428711256634    0.554259711345    0.000000000000
 O    3.470120281904   -0.271798884995    0.000000000000
 C    3.166507669003   -1.690443651731    0.000000000000
 H    4.135964787309   -2.195092776735    0.000000000000
 H    2.599461279790   -1.955910799432    0.904462042803
 H    2.599461279790   -1.955910799432   -0.904462042803
 C    2.801889372643    1.997721016726    0.000000000000
 H    1.896230025848    2.612107393254    0.000000000000
 H    3.415681513874    2.216650049468    0.885691507234
 H    3.415681513874    2.216650049468   -0.885691507234
