24

 C   -4.124300558205    0.911590532343    0.000000000000
 C   -2.897730558205    0.064040532343    0.000000000000
 O   -3.144930558205   -1.242029467657    0.000000000000
 C   -1.987200558205   -2.116329467657    0.000000000000
 O   -1.726530558205    0.500300532343    0.000000000000
 H   -3.841290558205    1.968750532343    0.000000000000
 H   -4.731740558205    0.675610532343    0.885690000000
 H   -4.731740558205    0.675610532343   -0.885690000000
 H   -2.390260558205   -3.132239467657    0.000000000000
 H   -1.384670558205   -1.946129467657    0.904460000000
 H   -1.384670558205   -1.946129467657   -0.904460000000
 K    0.002249441795    0.278810532343    1.840100000000
 K    0.002249441795    0.278810532343   -1.840100000000
 O    1.390898808926    0.100897814516    0.000000000000
 C    2.562101947008    0.537169795907    0.000000000000
 O    3.603510972278   -0.288888800433    0.000000000000
 C    3.299898359377   -1.707533567169    0.000000000000
 H    4.269355477682   -2.212182692173    0.000000000000
 H    2.732851970164   -1.973000714870    0.904462042803
 H    2.732851970164   -1.973000714870   -0.904462042803
 C    2.935280063017    1.980631101288    0.000000000000
 H    2.029620716222    2.595017477816    0.000000000000
 H    3.549072204248    2.199560134030    0.885691507234
 H    3.549072204248    2.199560134030   -0.885691507234
