24

 C   -4.189288348850    0.919916719452    0.000000000000
 C   -2.962718348850    0.072366719452    0.000000000000
 O   -3.209918348850   -1.233703280548    0.000000000000
 C   -2.052188348850   -2.108003280548    0.000000000000
 O   -1.791518348850    0.508626719452    0.000000000000
 H   -3.906278348850    1.977076719452    0.000000000000
 H   -4.796728348850    0.683936719452    0.885690000000
 H   -4.796728348850    0.683936719452   -0.885690000000
 H   -2.455248348850   -3.123913280548    0.000000000000
 H   -1.449658348850   -1.937803280548    0.904460000000
 H   -1.449658348850   -1.937803280548   -0.904460000000
 K   -0.062738348850    0.287136719452    1.840100000000
 K   -0.062738348850    0.287136719452   -1.840100000000
 O    1.524289499300    0.083807899078    0.000000000000
 C    2.695492637382    0.520079880469    0.000000000000
 O    3.736901662652   -0.305978715871    0.000000000000
 C    3.433289049751   -1.724623482607    0.000000000000
 H    4.402746168056   -2.229272607611    0.000000000000
 H    2.866242660538   -1.990090630308    0.904462042803
 H    2.866242660538   -1.990090630308   -0.904462042803
 C    3.068670753391    1.963541185850    0.000000000000
 H    2.163011406595    2.577927562378    0.000000000000
 H    3.682462894622    2.182470218592    0.885691507234
 H    3.682462894622    2.182470218592   -0.885691507234
