24

 C   -4.221782244173    0.924079813007    0.000000000000
 C   -2.995212244173    0.076529813007    0.000000000000
 O   -3.242412244173   -1.229540186993    0.000000000000
 C   -2.084682244173   -2.103840186993    0.000000000000
 O   -1.824012244173    0.512789813007    0.000000000000
 H   -3.938772244173    1.981239813007    0.000000000000
 H   -4.829222244173    0.688099813007    0.885690000000
 H   -4.829222244173    0.688099813007   -0.885690000000
 H   -2.487742244173   -3.119750186993    0.000000000000
 H   -1.482152244173   -1.933640186993    0.904460000000
 H   -1.482152244173   -1.933640186993   -0.904460000000
 K   -0.095232244173    0.291299813007    1.840100000000
 K   -0.095232244173    0.291299813007   -1.840100000000
 O    1.590984844487    0.075262941359    0.000000000000
 C    2.762187982569    0.511534922750    0.000000000000
 O    3.803597007839   -0.314523673590    0.000000000000
 C    3.499984394938   -1.733168440326    0.000000000000
 H    4.469441513243   -2.237817565330    0.000000000000
 H    2.932938005725   -1.998635588027    0.904462042803
 H    2.932938005725   -1.998635588027   -0.904462042803
 C    3.135366098577    1.954996228131    0.000000000000
 H    2.229706751782    2.569382604659    0.000000000000
 H    3.749158239809    2.173925260873    0.885691507234
 H    3.749158239809    2.173925260873   -0.885691507234
