24

 C   -6.918775555937    1.269616578022    0.000000000000
 C   -5.692205555937    0.422066578022    0.000000000000
 O   -5.939405555937   -0.884003421978    0.000000000000
 C   -4.781675555937   -1.758303421978    0.000000000000
 O   -4.521005555937    0.858326578022    0.000000000000
 H   -6.635765555937    2.326776578022    0.000000000000
 H   -7.526215555937    1.033636578022    0.885690000000
 H   -7.526215555937    1.033636578022   -0.885690000000
 H   -5.184735555937   -2.774213421978    0.000000000000
 H   -4.179145555937   -1.588103421978    0.904460000000
 H   -4.179145555937   -1.588103421978   -0.904460000000
 K   -2.792225555937    0.636836578022    1.840100000000
 K   -2.792225555937    0.636836578022   -1.840100000000
 O    7.126698495003   -0.633968549318    0.000000000000
 C    8.297901633085   -0.197696567927    0.000000000000
 O    9.339310658355   -1.023755164267    0.000000000000
 C    9.035698045454   -2.442399931003    0.000000000000
 H   10.005155163759   -2.947049056007    0.000000000000
 H    8.468651656241   -2.707867078704    0.904462042803
 H    8.468651656241   -2.707867078704   -0.904462042803
 C    8.671079749094    1.245764737454    0.000000000000
 H    7.765420402298    1.860151113982    0.000000000000
 H    9.284871890325    1.464693770196    0.885691507234
 H    9.284871890325    1.464693770196   -0.885691507234
