24

 C   -4.514227302075    0.961547654996    0.000000000000
 C   -3.287657302075    0.113997654996    0.000000000000
 O   -3.534857302075   -1.192072345004    0.000000000000
 C   -2.377127302075   -2.066372345004    0.000000000000
 O   -2.116457302075    0.550257654996    0.000000000000
 H   -4.231217302075    2.018707654996    0.000000000000
 H   -5.121667302075    0.725567654996    0.885690000000
 H   -5.121667302075    0.725567654996   -0.885690000000
 H   -2.780187302075   -3.082282345004    0.000000000000
 H   -1.774597302075   -1.896172345004    0.904460000000
 H   -1.774597302075   -1.896172345004   -0.904460000000
 K   -0.387677302075    0.328767654996    1.840100000000
 K   -0.387677302075    0.328767654996   -1.840100000000
 O    2.191242951170   -0.001641678112    0.000000000000
 C    3.362446089251    0.434630303279    0.000000000000
 O    4.403855114521   -0.391428293061    0.000000000000
 C    4.100242501621   -1.810073059797    0.000000000000
 H    5.069699619926   -2.314722184801    0.000000000000
 H    3.533196112407   -2.075540207498    0.904462042803
 H    3.533196112407   -2.075540207498   -0.904462042803
 C    3.735624205260    1.878091608660    0.000000000000
 H    2.829964858465    2.492477985188    0.000000000000
 H    4.349416346491    2.097020641402    0.885691507234
 H    4.349416346491    2.097020641402   -0.885691507234
