24

 C   -4.579215092720    0.969873842105    0.000000000000
 C   -3.352645092720    0.122323842105    0.000000000000
 O   -3.599845092720   -1.183746157895    0.000000000000
 C   -2.442115092720   -2.058046157895    0.000000000000
 O   -2.181445092720    0.558583842105    0.000000000000
 H   -4.296205092720    2.027033842105    0.000000000000
 H   -5.186655092720    0.733893842105    0.885690000000
 H   -5.186655092720    0.733893842105   -0.885690000000
 H   -2.845175092720   -3.073956157895    0.000000000000
 H   -1.839585092720   -1.887846157895    0.904460000000
 H   -1.839585092720   -1.887846157895   -0.904460000000
 K   -0.452665092720    0.337093842105    1.840100000000
 K   -0.452665092720    0.337093842105   -1.840100000000
 O    2.324633641543   -0.018731593550    0.000000000000
 C    3.495836779625    0.417540387841    0.000000000000
 O    4.537245804895   -0.408518208499    0.000000000000
 C    4.233633191994   -1.827162975235    0.000000000000
 H    5.203090310300   -2.331812100239    0.000000000000
 H    3.666586802781   -2.092630122936    0.904462042803
 H    3.666586802781   -2.092630122936   -0.904462042803
 C    3.869014895634    1.861001693222    0.000000000000
 H    2.963355548839    2.475388069750    0.000000000000
 H    4.482807036865    2.079930725964    0.885691507234
 H    4.482807036865    2.079930725964   -0.885691507234
