24

 C   -4.611708988042    0.974036935659    0.000000000000
 C   -3.385138988042    0.126486935659    0.000000000000
 O   -3.632338988042   -1.179583064341    0.000000000000
 C   -2.474608988042   -2.053883064341    0.000000000000
 O   -2.213938988042    0.562746935659    0.000000000000
 H   -4.328698988042    2.031196935659    0.000000000000
 H   -5.219148988042    0.738056935659    0.885690000000
 H   -5.219148988042    0.738056935659   -0.885690000000
 H   -2.877668988042   -3.069793064341    0.000000000000
 H   -1.872078988042   -1.883683064341    0.904460000000
 H   -1.872078988042   -1.883683064341   -0.904460000000
 K   -0.485158988042    0.341256935659    1.840100000000
 K   -0.485158988042    0.341256935659   -1.840100000000
 O    2.391328986730   -0.027276551269    0.000000000000
 C    3.562532124812    0.408995430122    0.000000000000
 O    4.603941150082   -0.417063166218    0.000000000000
 C    4.300328537181   -1.835707932954    0.000000000000
 H    5.269785655487   -2.340357057958    0.000000000000
 H    3.733282147968   -2.101175080655    0.904462042803
 H    3.733282147968   -2.101175080655   -0.904462042803
 C    3.935710240821    1.852456735503    0.000000000000
 H    3.030050894026    2.466843112031    0.000000000000
 H    4.549502382052    2.071385768245    0.885691507234
 H    4.549502382052    2.071385768245   -0.885691507234
