24

 C   -4.871660150622    1.007341684095    0.000000000000
 C   -3.645090150622    0.159791684095    0.000000000000
 O   -3.892290150622   -1.146278315905    0.000000000000
 C   -2.734560150622   -2.020578315905    0.000000000000
 O   -2.473890150622    0.596051684095    0.000000000000
 H   -4.588650150622    2.064501684095    0.000000000000
 H   -5.479100150622    0.771361684095    0.885690000000
 H   -5.479100150622    0.771361684095   -0.885690000000
 H   -3.137620150622   -3.036488315905    0.000000000000
 H   -2.132030150622   -1.850378315905    0.904460000000
 H   -2.132030150622   -1.850378315905   -0.904460000000
 K   -0.745110150622    0.374561684095    1.840100000000
 K   -0.745110150622    0.374561684095   -1.840100000000
 O    2.924891748226   -0.095636213021    0.000000000000
 C    4.096094886308    0.340635768370    0.000000000000
 O    5.137503911577   -0.485422827970    0.000000000000
 C    4.833891298677   -1.904067594706    0.000000000000
 H    5.803348416982   -2.408716719710    0.000000000000
 H    4.266844909464   -2.169534742407    0.904462042803
 H    4.266844909464   -2.169534742407   -0.904462042803
 C    4.469273002316    1.784097073751    0.000000000000
 H    3.563613655521    2.398483450279    0.000000000000
 H    5.083065143547    2.003026106493    0.885691507234
 H    5.083065143547    2.003026106493   -0.885691507234
