24

 C   -4.904154045945    1.011504777649    0.000000000000
 C   -3.677584045945    0.163954777649    0.000000000000
 O   -3.924784045945   -1.142115222351    0.000000000000
 C   -2.767054045945   -2.016415222351    0.000000000000
 O   -2.506384045945    0.600214777649    0.000000000000
 H   -4.621144045945    2.068664777649    0.000000000000
 H   -5.511594045945    0.775524777649    0.885690000000
 H   -5.511594045945    0.775524777649   -0.885690000000
 H   -3.170114045945   -3.032325222351    0.000000000000
 H   -2.164524045945   -1.846215222351    0.904460000000
 H   -2.164524045945   -1.846215222351   -0.904460000000
 K   -0.777604045945    0.378724777649    1.840100000000
 K   -0.777604045945    0.378724777649   -1.840100000000
 O    2.991587093413   -0.104181170740    0.000000000000
 C    4.162790231495    0.332090810651    0.000000000000
 O    5.204199256764   -0.493967785689    0.000000000000
 C    4.900586643864   -1.912612552425    0.000000000000
 H    5.870043762169   -2.417261677429    0.000000000000
 H    4.333540254651   -2.178079700126    0.904462042803
 H    4.333540254651   -2.178079700126   -0.904462042803
 C    4.535968347503    1.775552116032    0.000000000000
 H    3.630309000708    2.389938492560    0.000000000000
 H    5.149760488734    1.994481148774    0.885691507234
 H    5.149760488734    1.994481148774   -0.885691507234
