24

 C   -5.131611313202    1.040646432530    0.000000000000
 C   -3.905041313202    0.193096432530    0.000000000000
 O   -4.152241313202   -1.112973567470    0.000000000000
 C   -2.994511313202   -1.987273567470    0.000000000000
 O   -2.733841313202    0.629356432530    0.000000000000
 H   -4.848601313202    2.097806432530    0.000000000000
 H   -5.739051313202    0.804666432530    0.885690000000
 H   -5.739051313202    0.804666432530   -0.885690000000
 H   -3.397571313202   -3.003183567470    0.000000000000
 H   -2.391981313202   -1.817073567470    0.904460000000
 H   -2.391981313202   -1.817073567470   -0.904460000000
 K   -1.005061313202    0.407866432530    1.840100000000
 K   -1.005061313202    0.407866432530   -1.840100000000
 O    3.458454509721   -0.163995874773    0.000000000000
 C    4.629657647803    0.272276106618    0.000000000000
 O    5.671066673073   -0.553782489722    0.000000000000
 C    5.367454060172   -1.972427256458    0.000000000000
 H    6.336911178478   -2.477076381462    0.000000000000
 H    4.800407670959   -2.237894404159    0.904462042803
 H    4.800407670959   -2.237894404159   -0.904462042803
 C    5.002835763812    1.715737411999    0.000000000000
 H    4.097176417017    2.330123788527    0.000000000000
 H    5.616627905043    1.934666444741    0.885691507234
 H    5.616627905043    1.934666444741   -0.885691507234
