24

 C   -5.229092999169    1.053135713193    0.000000000000
 C   -4.002522999169    0.205585713193    0.000000000000
 O   -4.249722999169   -1.100484286807    0.000000000000
 C   -3.091992999169   -1.974784286807    0.000000000000
 O   -2.831322999169    0.641845713193    0.000000000000
 H   -4.946082999169    2.110295713193    0.000000000000
 H   -5.836532999169    0.817155713193    0.885690000000
 H   -5.836532999169    0.817155713193   -0.885690000000
 H   -3.495052999169   -2.990694286807    0.000000000000
 H   -2.489462999169   -1.804584286807    0.904460000000
 H   -2.489462999169   -1.804584286807   -0.904460000000
 K   -1.102542999169    0.420355713193    1.840100000000
 K   -1.102542999169    0.420355713193   -1.840100000000
 O    3.658540545282   -0.189630747930    0.000000000000
 C    4.829743683364    0.246641233461    0.000000000000
 O    5.871152708634   -0.579417362879    0.000000000000
 C    5.567540095733   -1.998062129615    0.000000000000
 H    6.536997214038   -2.502711254619    0.000000000000
 H    5.000493706520   -2.263529277316    0.904462042803
 H    5.000493706520   -2.263529277316   -0.904462042803
 C    5.202921799373    1.690102538842    0.000000000000
 H    4.297262452578    2.304488915370    0.000000000000
 H    5.816713940604    1.909031571584    0.885691507234
 H    5.816713940604    1.909031571584   -0.885691507234
