24

 C   -5.424056371104    1.078114274519    0.000000000000
 C   -4.197486371104    0.230564274519    0.000000000000
 O   -4.444686371104   -1.075505725481    0.000000000000
 C   -3.286956371104   -1.949805725481    0.000000000000
 O   -3.026286371104    0.666824274519    0.000000000000
 H   -5.141046371104    2.135274274519    0.000000000000
 H   -6.031496371104    0.842134274519    0.885690000000
 H   -6.031496371104    0.842134274519   -0.885690000000
 H   -3.690016371104   -2.965715725481    0.000000000000
 H   -2.684426371104   -1.779605725481    0.904460000000
 H   -2.684426371104   -1.779605725481   -0.904460000000
 K   -1.297506371104    0.445334274519    1.840100000000
 K   -1.297506371104    0.445334274519   -1.840100000000
 O    4.058712616404   -0.240900494244    0.000000000000
 C    5.229915754486    0.195371487147    0.000000000000
 O    6.271324779755   -0.630687109193    0.000000000000
 C    5.967712166855   -2.049331875929    0.000000000000
 H    6.937169285160   -2.553981000933    0.000000000000
 H    5.400665777642   -2.314799023630    0.904462042803
 H    5.400665777642   -2.314799023630   -0.904462042803
 C    5.603093870494    1.638832792528    0.000000000000
 H    4.697434523699    2.253219169056    0.000000000000
 H    6.216886011725    1.857761825270    0.885691507234
 H    6.216886011725    1.857761825270   -0.885691507234
