24

 C   -5.456550266426    1.082277368074    0.000000000000
 C   -4.229980266426    0.234727368074    0.000000000000
 O   -4.477180266426   -1.071342631926    0.000000000000
 C   -3.319450266426   -1.945642631926    0.000000000000
 O   -3.058780266426    0.670987368074    0.000000000000
 H   -5.173540266426    2.139437368074    0.000000000000
 H   -6.063990266426    0.846297368074    0.885690000000
 H   -6.063990266426    0.846297368074   -0.885690000000
 H   -3.722510266426   -2.961552631926    0.000000000000
 H   -2.716920266426   -1.775442631926    0.904460000000
 H   -2.716920266426   -1.775442631926   -0.904460000000
 K   -1.330000266426    0.449497368074    1.840100000000
 K   -1.330000266426    0.449497368074   -1.840100000000
 O    4.125407961591   -0.249445451963    0.000000000000
 C    5.296611099673    0.186826529428    0.000000000000
 O    6.338020124942   -0.639232066912    0.000000000000
 C    6.034407512042   -2.057876833648    0.000000000000
 H    7.003864630347   -2.562525958652    0.000000000000
 H    5.467361122829   -2.323343981349    0.904462042803
 H    5.467361122829   -2.323343981349   -0.904462042803
 C    5.669789215681    1.630287834809    0.000000000000
 H    4.764129868886    2.244674211337    0.000000000000
 H    6.283581356912    1.849216867551    0.885691507234
 H    6.283581356912    1.849216867551   -0.885691507234
