24

 C   -5.489044161749    1.086440461628    0.000000000000
 C   -4.262474161749    0.238890461628    0.000000000000
 O   -4.509674161749   -1.067179538372    0.000000000000
 C   -3.351944161749   -1.941479538372    0.000000000000
 O   -3.091274161749    0.675150461628    0.000000000000
 H   -5.206034161749    2.143600461628    0.000000000000
 H   -6.096484161749    0.850460461628    0.885690000000
 H   -6.096484161749    0.850460461628   -0.885690000000
 H   -3.755004161749   -2.957389538372    0.000000000000
 H   -2.749414161749   -1.771279538372    0.904460000000
 H   -2.749414161749   -1.771279538372   -0.904460000000
 K   -1.362494161749    0.453660461628    1.840100000000
 K   -1.362494161749    0.453660461628   -1.840100000000
 O    4.192103306778   -0.257990409682    0.000000000000
 C    5.363306444860    0.178281571709    0.000000000000
 O    6.404715470129   -0.647777024631    0.000000000000
 C    6.101102857229   -2.066421791367    0.000000000000
 H    7.070559975534   -2.571070916371    0.000000000000
 H    5.534056468016   -2.331888939068    0.904462042803
 H    5.534056468016   -2.331888939068   -0.904462042803
 C    5.736484560868    1.621742877090    0.000000000000
 H    4.830825214073    2.236129253618    0.000000000000
 H    6.350276702099    1.840671909832    0.885691507234
 H    6.350276702099    1.840671909832   -0.885691507234
