24

 C   -5.554031952394    1.094766648737    0.000000000000
 C   -4.327461952394    0.247216648737    0.000000000000
 O   -4.574661952394   -1.058853351263    0.000000000000
 C   -3.416931952394   -1.933153351263    0.000000000000
 O   -3.156261952394    0.683476648737    0.000000000000
 H   -5.271021952394    2.151926648737    0.000000000000
 H   -6.161471952394    0.858786648737    0.885690000000
 H   -6.161471952394    0.858786648737   -0.885690000000
 H   -3.819991952394   -2.949063351263    0.000000000000
 H   -2.814401952394   -1.762953351263    0.904460000000
 H   -2.814401952394   -1.762953351263   -0.904460000000
 K   -1.427481952394    0.461986648737    1.840100000000
 K   -1.427481952394    0.461986648737   -1.840100000000
 O    4.325493997152   -0.275080325120    0.000000000000
 C    5.496697135234    0.161191656271    0.000000000000
 O    6.538106160503   -0.664866940069    0.000000000000
 C    6.234493547603   -2.083511706805    0.000000000000
 H    7.203950665908   -2.588160831809    0.000000000000
 H    5.667447158389   -2.348978854506    0.904462042803
 H    5.667447158389   -2.348978854506   -0.904462042803
 C    5.869875251242    1.604652961652    0.000000000000
 H    4.964215904447    2.219039338180    0.000000000000
 H    6.483667392473    1.823581994394    0.885691507234
 H    6.483667392473    1.823581994394   -0.885691507234
