24

 C   -5.586525847716    1.098929742291    0.000000000000
 C   -4.359955847716    0.251379742291    0.000000000000
 O   -4.607155847716   -1.054690257709    0.000000000000
 C   -3.449425847716   -1.928990257709    0.000000000000
 O   -3.188755847716    0.687639742291    0.000000000000
 H   -5.303515847716    2.156089742291    0.000000000000
 H   -6.193965847716    0.862949742291    0.885690000000
 H   -6.193965847716    0.862949742291   -0.885690000000
 H   -3.852485847716   -2.944900257709    0.000000000000
 H   -2.846895847716   -1.758790257709    0.904460000000
 H   -2.846895847716   -1.758790257709   -0.904460000000
 K   -1.459975847716    0.466149742291    1.840100000000
 K   -1.459975847716    0.466149742291   -1.840100000000
 O    4.392189342339   -0.283625282839    0.000000000000
 C    5.563392480420    0.152646698552    0.000000000000
 O    6.604801505690   -0.673411897788    0.000000000000
 C    6.301188892790   -2.092056664524    0.000000000000
 H    7.270646011095   -2.596705789528    0.000000000000
 H    5.734142503576   -2.357523812225    0.904462042803
 H    5.734142503576   -2.357523812225   -0.904462042803
 C    5.936570596429    1.596108003933    0.000000000000
 H    5.030911249634    2.210494380461    0.000000000000
 H    6.550362737660    1.815037036675    0.885691507234
 H    6.550362737660    1.815037036675   -0.885691507234
