24

 C   -5.716501429006    1.115582116509    0.000000000000
 C   -4.489931429006    0.268032116509    0.000000000000
 O   -4.737131429006   -1.038037883491    0.000000000000
 C   -3.579401429006   -1.912337883491    0.000000000000
 O   -3.318731429006    0.704292116509    0.000000000000
 H   -5.433491429006    2.172742116509    0.000000000000
 H   -6.323941429006    0.879602116509    0.885690000000
 H   -6.323941429006    0.879602116509   -0.885690000000
 H   -3.982461429006   -2.928247883491    0.000000000000
 H   -2.976871429006   -1.742137883491    0.904460000000
 H   -2.976871429006   -1.742137883491   -0.904460000000
 K   -1.589951429006    0.482802116509    1.840100000000
 K   -1.589951429006    0.482802116509   -1.840100000000
 O    4.658970723086   -0.317805113715    0.000000000000
 C    5.830173861168    0.118466867676    0.000000000000
 O    6.871582886438   -0.707591728664    0.000000000000
 C    6.567970273537   -2.126236495400    0.000000000000
 H    7.537427391843   -2.630885620404    0.000000000000
 H    6.000923884324   -2.391703643101    0.904462042803
 H    6.000923884324   -2.391703643101   -0.904462042803
 C    6.203351977177    1.561928173057    0.000000000000
 H    5.297692630382    2.176314549585    0.000000000000
 H    6.817144118408    1.780857205799    0.885691507234
 H    6.817144118408    1.780857205799   -0.885691507234
