24

 C   -5.813983114974    1.128071397172    0.000000000000
 C   -4.587413114974    0.280521397172    0.000000000000
 O   -4.834613114974   -1.025548602828    0.000000000000
 C   -3.676883114974   -1.899848602828    0.000000000000
 O   -3.416213114974    0.716781397172    0.000000000000
 H   -5.530973114974    2.185231397172    0.000000000000
 H   -6.421423114974    0.892091397172    0.885690000000
 H   -6.421423114974    0.892091397172   -0.885690000000
 H   -4.079943114974   -2.915758602828    0.000000000000
 H   -3.074353114974   -1.729648602828    0.904460000000
 H   -3.074353114974   -1.729648602828   -0.904460000000
 K   -1.687433114974    0.495291397172    1.840100000000
 K   -1.687433114974    0.495291397172   -1.840100000000
 O    4.859056758647   -0.343439986872    0.000000000000
 C    6.030259896729    0.092831994519    0.000000000000
 O    7.071668921999   -0.733226601821    0.000000000000
 C    6.768056309098   -2.151871368557    0.000000000000
 H    7.737513427403   -2.656520493561    0.000000000000
 H    6.201009919885   -2.417338516258    0.904462042803
 H    6.201009919885   -2.417338516258   -0.904462042803
 C    6.403438012738    1.536293299900    0.000000000000
 H    5.497778665943    2.150679676428    0.000000000000
 H    7.017230153969    1.755222332642    0.885691507234
 H    7.017230153969    1.755222332642   -0.885691507234
