24

 C   -5.846477010296    1.132234490727    0.000000000000
 C   -4.619907010296    0.284684490727    0.000000000000
 O   -4.867107010296   -1.021385509273    0.000000000000
 C   -3.709377010296   -1.895685509273    0.000000000000
 O   -3.448707010296    0.720944490727    0.000000000000
 H   -5.563467010296    2.189394490727    0.000000000000
 H   -6.453917010296    0.896254490727    0.885690000000
 H   -6.453917010296    0.896254490727   -0.885690000000
 H   -4.112437010296   -2.911595509273    0.000000000000
 H   -3.106847010296   -1.725485509273    0.904460000000
 H   -3.106847010296   -1.725485509273   -0.904460000000
 K   -1.719927010296    0.499454490727    1.840100000000
 K   -1.719927010296    0.499454490727   -1.840100000000
 O    4.925752103834   -0.351984944591    0.000000000000
 C    6.096955241916    0.084287036800    0.000000000000
 O    7.138364267186   -0.741771559540    0.000000000000
 C    6.834751654285   -2.160416326276    0.000000000000
 H    7.804208772590   -2.665065451280    0.000000000000
 H    6.267705265072   -2.425883473977    0.904462042803
 H    6.267705265072   -2.425883473977   -0.904462042803
 C    6.470133357924    1.527748342181    0.000000000000
 H    5.564474011129    2.142134718709    0.000000000000
 H    7.083925499156    1.746677374923    0.885691507234
 H    7.083925499156    1.746677374923   -0.885691507234
