24

 C   -5.911464800941    1.140560677835    0.000000000000
 C   -4.684894800941    0.293010677835    0.000000000000
 O   -4.932094800941   -1.013059322165    0.000000000000
 C   -3.774364800941   -1.887359322165    0.000000000000
 O   -3.513694800941    0.729270677835    0.000000000000
 H   -5.628454800941    2.197720677835    0.000000000000
 H   -6.518904800941    0.904580677835    0.885690000000
 H   -6.518904800941    0.904580677835   -0.885690000000
 H   -4.177424800941   -2.903269322165    0.000000000000
 H   -3.171834800941   -1.717159322165    0.904460000000
 H   -3.171834800941   -1.717159322165   -0.904460000000
 K   -1.784914800941    0.507780677835    1.840100000000
 K   -1.784914800941    0.507780677835   -1.840100000000
 O    5.059142794208   -0.369074860029    0.000000000000
 C    6.230345932290    0.067197121362    0.000000000000
 O    7.271754957560   -0.758861474978    0.000000000000
 C    6.968142344659   -2.177506241714    0.000000000000
 H    7.937599462964   -2.682155366718    0.000000000000
 H    6.401095955446   -2.442973389415    0.904462042803
 H    6.401095955446   -2.442973389415   -0.904462042803
 C    6.603524048298    1.510658426743    0.000000000000
 H    5.697864701503    2.125044803271    0.000000000000
 H    7.217316189530    1.729587459485    0.885691507234
 H    7.217316189530    1.729587459485   -0.885691507234
