24

 C   -5.976452591586    1.148886864944    0.000000000000
 C   -4.749882591586    0.301336864944    0.000000000000
 O   -4.997082591586   -1.004733135056    0.000000000000
 C   -3.839352591586   -1.879033135056    0.000000000000
 O   -3.578682591586    0.737596864944    0.000000000000
 H   -5.693442591586    2.206046864944    0.000000000000
 H   -6.583892591586    0.912906864944    0.885690000000
 H   -6.583892591586    0.912906864944   -0.885690000000
 H   -4.242412591586   -2.894943135056    0.000000000000
 H   -3.236822591586   -1.708833135056    0.904460000000
 H   -3.236822591586   -1.708833135056   -0.904460000000
 K   -1.849902591586    0.516106864944    1.840100000000
 K   -1.849902591586    0.516106864944   -1.840100000000
 O    5.192533484582   -0.386164775467    0.000000000000
 C    6.363736622664    0.050107205924    0.000000000000
 O    7.405145647933   -0.775951390416    0.000000000000
 C    7.101533035033   -2.194596157152    0.000000000000
 H    8.070990153338   -2.699245282156    0.000000000000
 H    6.534486645820   -2.460063304853    0.904462042803
 H    6.534486645820   -2.460063304853   -0.904462042803
 C    6.736914738672    1.493568511305    0.000000000000
 H    5.831255391877    2.107954887833    0.000000000000
 H    7.350706879903    1.712497544047    0.885691507234
 H    7.350706879903    1.712497544047   -0.885691507234
