24

 C   -6.008946486908    1.153049958498    0.000000000000
 C   -4.782376486908    0.305499958498    0.000000000000
 O   -5.029576486908   -1.000570041502    0.000000000000
 C   -3.871846486908   -1.874870041502    0.000000000000
 O   -3.611176486908    0.741759958498    0.000000000000
 H   -5.725936486908    2.210209958498    0.000000000000
 H   -6.616386486908    0.917069958498    0.885690000000
 H   -6.616386486908    0.917069958498   -0.885690000000
 H   -4.274906486908   -2.890780041502    0.000000000000
 H   -3.269316486908   -1.704670041502    0.904460000000
 H   -3.269316486908   -1.704670041502   -0.904460000000
 K   -1.882396486908    0.520269958498    1.840100000000
 K   -1.882396486908    0.520269958498   -1.840100000000
 O    5.259228829769   -0.394709733186    0.000000000000
 C    6.430431967851    0.041562248205    0.000000000000
 O    7.471840993120   -0.784496348135    0.000000000000
 C    7.168228380220   -2.203141114871    0.000000000000
 H    8.137685498525   -2.707790239875    0.000000000000
 H    6.601181991007   -2.468608262572    0.904462042803
 H    6.601181991007   -2.468608262572   -0.904462042803
 C    6.803610083859    1.485023553586    0.000000000000
 H    5.897950737064    2.099409930114    0.000000000000
 H    7.417402225090    1.703952586328    0.885691507234
 H    7.417402225090    1.703952586328   -0.885691507234
