24

 C   -6.268897649488    1.186354706934    0.000000000000
 C   -5.042327649488    0.338804706934    0.000000000000
 O   -5.289527649488   -0.967265293066    0.000000000000
 C   -4.131797649488   -1.841565293066    0.000000000000
 O   -3.871127649488    0.775064706934    0.000000000000
 H   -5.985887649488    2.243514706934    0.000000000000
 H   -6.876337649488    0.950374706934    0.885690000000
 H   -6.876337649488    0.950374706934   -0.885690000000
 H   -4.534857649488   -2.857475293066    0.000000000000
 H   -3.529267649488   -1.671365293066    0.904460000000
 H   -3.529267649488   -1.671365293066   -0.904460000000
 K   -2.142347649488    0.553574706934    1.840100000000
 K   -2.142347649488    0.553574706934   -1.840100000000
 O    5.792791591264   -0.463069394938    0.000000000000
 C    6.963994729346   -0.026797413547    0.000000000000
 O    8.005403754616   -0.852856009887    0.000000000000
 C    7.701791141715   -2.271500776623    0.000000000000
 H    8.671248260021   -2.776149901627    0.000000000000
 H    7.134744752502   -2.536967924324    0.904462042803
 H    7.134744752502   -2.536967924324   -0.904462042803
 C    7.337172845355    1.416663891834    0.000000000000
 H    6.431513498560    2.031050268362    0.000000000000
 H    7.950964986586    1.635592924576    0.885691507234
 H    7.950964986586    1.635592924576   -0.885691507234
