24

 C   -6.301391544811    1.190517800488    0.000000000000
 C   -5.074821544811    0.342967800488    0.000000000000
 O   -5.322021544811   -0.963102199512    0.000000000000
 C   -4.164291544811   -1.837402199512    0.000000000000
 O   -3.903621544811    0.779227800488    0.000000000000
 H   -6.018381544811    2.247677800488    0.000000000000
 H   -6.908831544811    0.954537800488    0.885690000000
 H   -6.908831544811    0.954537800488   -0.885690000000
 H   -4.567351544811   -2.853312199512    0.000000000000
 H   -3.561761544811   -1.667202199512    0.904460000000
 H   -3.561761544811   -1.667202199512   -0.904460000000
 K   -2.174841544811    0.557737800488    1.840100000000
 K   -2.174841544811    0.557737800488   -1.840100000000
 O    5.859486936451   -0.471614352657    0.000000000000
 C    7.030690074533   -0.035342371266    0.000000000000
 O    8.072099099803   -0.861400967606    0.000000000000
 C    7.768486486902   -2.280045734342    0.000000000000
 H    8.737943605208   -2.784694859346    0.000000000000
 H    7.201440097689   -2.545512882043    0.904462042803
 H    7.201440097689   -2.545512882043   -0.904462042803
 C    7.403868190542    1.408118934115    0.000000000000
 H    6.498208843747    2.022505310643    0.000000000000
 H    8.017660331773    1.627047966857    0.885691507234
 H    8.017660331773    1.627047966857   -0.885691507234
