24

 C   -6.333885440133    1.194680894042    0.000000000000
 C   -5.107315440133    0.347130894042    0.000000000000
 O   -5.354515440133   -0.958939105958    0.000000000000
 C   -4.196785440133   -1.833239105958    0.000000000000
 O   -3.936115440133    0.783390894042    0.000000000000
 H   -6.050875440133    2.251840894042    0.000000000000
 H   -6.941325440133    0.958700894042    0.885690000000
 H   -6.941325440133    0.958700894042   -0.885690000000
 H   -4.599845440133   -2.849149105958    0.000000000000
 H   -3.594255440133   -1.663039105958    0.904460000000
 H   -3.594255440133   -1.663039105958   -0.904460000000
 K   -2.207335440133    0.561900894042    1.840100000000
 K   -2.207335440133    0.561900894042   -1.840100000000
 O    5.926182281638   -0.480159310376    0.000000000000
 C    7.097385419720   -0.043887328985    0.000000000000
 O    8.138794444990   -0.869945925325    0.000000000000
 C    7.835181832089   -2.288590692061    0.000000000000
 H    8.804638950394   -2.793239817065    0.000000000000
 H    7.268135442876   -2.554057839762    0.904462042803
 H    7.268135442876   -2.554057839762   -0.904462042803
 C    7.470563535729    1.399573976396    0.000000000000
 H    6.564904188934    2.013960352924    0.000000000000
 H    8.084355676960    1.618503009138    0.885691507234
 H    8.084355676960    1.618503009138   -0.885691507234
