24

 C   -6.366379335455    1.198843987597    0.000000000000
 C   -5.139809335455    0.351293987597    0.000000000000
 O   -5.387009335455   -0.954776012403    0.000000000000
 C   -4.229279335455   -1.829076012403    0.000000000000
 O   -3.968609335455    0.787553987597    0.000000000000
 H   -6.083369335455    2.256003987597    0.000000000000
 H   -6.973819335455    0.962863987597    0.885690000000
 H   -6.973819335455    0.962863987597   -0.885690000000
 H   -4.632339335455   -2.844986012403    0.000000000000
 H   -3.626749335455   -1.658876012403    0.904460000000
 H   -3.626749335455   -1.658876012403   -0.904460000000
 K   -2.239829335455    0.566063987597    1.840100000000
 K   -2.239829335455    0.566063987597   -1.840100000000
 O    5.992877626825   -0.488704268095    0.000000000000
 C    7.164080764907   -0.052432286704    0.000000000000
 O    8.205489790177   -0.878490883044    0.000000000000
 C    7.901877177276   -2.297135649780    0.000000000000
 H    8.871334295581   -2.801784774784    0.000000000000
 H    7.334830788063   -2.562602797481    0.904462042803
 H    7.334830788063   -2.562602797481   -0.904462042803
 C    7.537258880916    1.391029018677    0.000000000000
 H    6.631599534121    2.005415395205    0.000000000000
 H    8.151051022147    1.609958051419    0.885691507234
 H    8.151051022147    1.609958051419   -0.885691507234
