24

 C   -6.398873230778    1.203007081151    0.000000000000
 C   -5.172303230778    0.355457081151    0.000000000000
 O   -5.419503230778   -0.950612918849    0.000000000000
 C   -4.261773230778   -1.824912918849    0.000000000000
 O   -4.001103230778    0.791717081151    0.000000000000
 H   -6.115863230778    2.260167081151    0.000000000000
 H   -7.006313230778    0.967027081151    0.885690000000
 H   -7.006313230778    0.967027081151   -0.885690000000
 H   -4.664833230778   -2.840822918849    0.000000000000
 H   -3.659243230778   -1.654712918849    0.904460000000
 H   -3.659243230778   -1.654712918849   -0.904460000000
 K   -2.272323230778    0.570227081151    1.840100000000
 K   -2.272323230778    0.570227081151   -1.840100000000
 O    6.059572972012   -0.497249225814    0.000000000000
 C    7.230776110094   -0.060977244423    0.000000000000
 O    8.272185135364   -0.887035840763    0.000000000000
 C    7.968572522463   -2.305680607499    0.000000000000
 H    8.938029640768   -2.810329732503    0.000000000000
 H    7.401526133250   -2.571147755200    0.904462042803
 H    7.401526133250   -2.571147755200   -0.904462042803
 C    7.603954226102    1.382484060958    0.000000000000
 H    6.698294879307    1.996870437486    0.000000000000
 H    8.217746367334    1.601413093700    0.885691507234
 H    8.217746367334    1.601413093700   -0.885691507234
