24

 C   -6.431367126100    1.207170174706    0.000000000000
 C   -5.204797126100    0.359620174706    0.000000000000
 O   -5.451997126100   -0.946449825294    0.000000000000
 C   -4.294267126100   -1.820749825294    0.000000000000
 O   -4.033597126100    0.795880174706    0.000000000000
 H   -6.148357126100    2.264330174706    0.000000000000
 H   -7.038807126100    0.971190174706    0.885690000000
 H   -7.038807126100    0.971190174706   -0.885690000000
 H   -4.697327126100   -2.836659825294    0.000000000000
 H   -3.691737126100   -1.650549825294    0.904460000000
 H   -3.691737126100   -1.650549825294   -0.904460000000
 K   -2.304817126100    0.574390174706    1.840100000000
 K   -2.304817126100    0.574390174706   -1.840100000000
 O    6.126268317199   -0.505794183533    0.000000000000
 C    7.297471455281   -0.069522202142    0.000000000000
 O    8.338880480551   -0.895580798482    0.000000000000
 C    8.035267867650   -2.314225565218    0.000000000000
 H    9.004724985955   -2.818874690222    0.000000000000
 H    7.468221478437   -2.579692712919    0.904462042803
 H    7.468221478437   -2.579692712919   -0.904462042803
 C    7.670649571289    1.373939103239    0.000000000000
 H    6.764990224494    1.988325479767    0.000000000000
 H    8.284441712521    1.592868135981    0.885691507234
 H    8.284441712521    1.592868135981   -0.885691507234
