24

 C   -6.496354916745    1.215496361814    0.000000000000
 C   -5.269784916745    0.367946361814    0.000000000000
 O   -5.516984916745   -0.938123638186    0.000000000000
 C   -4.359254916745   -1.812423638186    0.000000000000
 O   -4.098584916745    0.804206361814    0.000000000000
 H   -6.213344916745    2.272656361814    0.000000000000
 H   -7.103794916745    0.979516361814    0.885690000000
 H   -7.103794916745    0.979516361814   -0.885690000000
 H   -4.762314916745   -2.828333638186    0.000000000000
 H   -3.756724916745   -1.642223638186    0.904460000000
 H   -3.756724916745   -1.642223638186   -0.904460000000
 K   -2.369804916745    0.582716361814    1.840100000000
 K   -2.369804916745    0.582716361814   -1.840100000000
 O    6.259659007573   -0.522884098971    0.000000000000
 C    7.430862145655   -0.086612117580    0.000000000000
 O    8.472271170924   -0.912670713920    0.000000000000
 C    8.168658558024   -2.331315480656    0.000000000000
 H    9.138115676329   -2.835964605660    0.000000000000
 H    7.601612168811   -2.596782628357    0.904462042803
 H    7.601612168811   -2.596782628357   -0.904462042803
 C    7.804040261663    1.356849187801    0.000000000000
 H    6.898380914868    1.971235564329    0.000000000000
 H    8.417832402894    1.575778220543    0.885691507234
 H    8.417832402894    1.575778220543   -0.885691507234
