24

 C   -6.528848812068    1.219659455369    0.000000000000
 C   -5.302278812068    0.372109455369    0.000000000000
 O   -5.549478812068   -0.933960544631    0.000000000000
 C   -4.391748812068   -1.808260544631    0.000000000000
 O   -4.131078812068    0.808369455369    0.000000000000
 H   -6.245838812068    2.276819455369    0.000000000000
 H   -7.136288812068    0.983679455369    0.885690000000
 H   -7.136288812068    0.983679455369   -0.885690000000
 H   -4.794808812068   -2.824170544631    0.000000000000
 H   -3.789218812068   -1.638060544631    0.904460000000
 H   -3.789218812068   -1.638060544631   -0.904460000000
 K   -2.402298812068    0.586879455369    1.840100000000
 K   -2.402298812068    0.586879455369   -1.840100000000
 O    6.326354352760   -0.531429056690    0.000000000000
 C    7.497557490842   -0.095157075299    0.000000000000
 O    8.538966516111   -0.921215671639    0.000000000000
 C    8.235353903211   -2.339860438375    0.000000000000
 H    9.204811021516   -2.844509563379    0.000000000000
 H    7.668307513998   -2.605327586076    0.904462042803
 H    7.668307513998   -2.605327586076   -0.904462042803
 C    7.870735606850    1.348304230082    0.000000000000
 H    6.965076260055    1.962690606610    0.000000000000
 H    8.484527748081    1.567233262824    0.885691507234
 H    8.484527748081    1.567233262824   -0.885691507234
