24

 C   -6.691318288680    1.240474923141    0.000000000000
 C   -5.464748288680    0.392924923141    0.000000000000
 O   -5.711948288680   -0.913145076859    0.000000000000
 C   -4.554218288680   -1.787445076859    0.000000000000
 O   -4.293548288680    0.829184923141    0.000000000000
 H   -6.408308288680    2.297634923141    0.000000000000
 H   -7.298758288680    1.004494923141    0.885690000000
 H   -7.298758288680    1.004494923141   -0.885690000000
 H   -4.957278288680   -2.803355076859    0.000000000000
 H   -3.951688288680   -1.617245076859    0.904460000000
 H   -3.951688288680   -1.617245076859   -0.904460000000
 K   -2.564768288680    0.607694923141    1.840100000000
 K   -2.564768288680    0.607694923141   -1.840100000000
 O    6.659831078695   -0.574153845285    0.000000000000
 C    7.831034216776   -0.137881863894    0.000000000000
 O    8.872443242046   -0.963940460234    0.000000000000
 C    8.568830629146   -2.382585226970    0.000000000000
 H    9.538287747451   -2.887234351974    0.000000000000
 H    8.001784239932   -2.648052374671    0.904462042803
 H    8.001784239932   -2.648052374671   -0.904462042803
 C    8.204212332785    1.305579441487    0.000000000000
 H    7.298552985990    1.919965818015    0.000000000000
 H    8.818004474016    1.524508474229    0.885691507234
 H    8.818004474016    1.524508474229   -0.885691507234
