24

 C   -6.853787765292    1.261290390913    0.000000000000
 C   -5.627217765292    0.413740390913    0.000000000000
 O   -5.874417765292   -0.892329609087    0.000000000000
 C   -4.716687765292   -1.766629609087    0.000000000000
 O   -4.456017765292    0.850000390913    0.000000000000
 H   -6.570777765292    2.318450390913    0.000000000000
 H   -7.461227765292    1.025310390913    0.885690000000
 H   -7.461227765292    1.025310390913   -0.885690000000
 H   -5.119747765292   -2.782539609087    0.000000000000
 H   -4.114157765292   -1.596429609087    0.904460000000
 H   -4.114157765292   -1.596429609087   -0.904460000000
 K   -2.727237765292    0.628510390913    1.840100000000
 K   -2.727237765292    0.628510390913   -1.840100000000
 O    6.993307804629   -0.616878633880    0.000000000000
 C    8.164510942711   -0.180606652489    0.000000000000
 O    9.205919967981   -1.006665248829    0.000000000000
 C    8.902307355080   -2.425310015565    0.000000000000
 H    9.871764473386   -2.929959140569    0.000000000000
 H    8.335260965867   -2.690777163266    0.904462042803
 H    8.335260965867   -2.690777163266   -0.904462042803
 C    8.537689058720    1.262854652892    0.000000000000
 H    7.632029711925    1.877241029420    0.000000000000
 H    9.151481199951    1.481783685634    0.885691507234
 H    9.151481199951    1.481783685634   -0.885691507234
