11

 H   -0.817807143288    2.350701773278    4.109709010286
 H   -0.198667143288    0.792641773278    4.735969010286
 H   -1.846837143288    0.889161773278    4.047949010286
 C   -0.815077143288    1.259661773278    3.950919010286
 S   -0.112227143288    0.876081773278    2.303279010286
RB    0.018912856712   -0.147638226722   -0.388150989714
 S    0.078055980942   -0.609328017304   -1.601965072730
 C    0.780904464440   -0.992909716081   -3.249607843360
 H    0.783628741634   -2.083941572294   -3.408398485216
 H    0.164494278818   -0.525888619822   -4.034649051903
 H    1.812661156818   -0.622405953522   -3.346640787058
