11

 H   -0.821392410500    2.378689494419    4.183290646194
 H   -0.202252410500    0.820629494419    4.809550646194
 H   -1.850422410500    0.917149494419    4.121530646194
 C   -0.818662410500    1.287649494419    4.024500646194
 S   -0.115812410500    0.904069494419    2.376860646194
RB    0.015327589500   -0.119650505581   -0.314569353806
 S    0.088119127014   -0.687884093989   -1.808494379057
 C    0.790967610512   -1.071465792766   -3.456137149686
 H    0.793691887705   -2.162497648979   -3.614927791543
 H    0.174557424890   -0.604444696507   -4.241178358230
 H    1.822724302890   -0.700962030207   -3.553170093384
