11

 H   -0.822587499571    2.388018734800    4.207817858164
 H   -0.203447499571    0.829958734800    4.834077858164
 H   -1.851617499571    0.926478734800    4.146057858164
 C   -0.819857499571    1.296978734800    4.049027858164
 S   -0.117007499571    0.913398734800    2.401387858164
RB    0.014132500429   -0.110321265200   -0.290042141836
 S    0.091473509038   -0.714069452884   -1.877337481166
 C    0.794321992536   -1.097651151661   -3.524980251795
 H    0.797046269729   -2.188683007874   -3.683770893651
 H    0.177911806914   -0.630630055402   -4.310021460338
 H    1.826078684914   -0.727147389102   -3.622013195493
