11

 H   -0.921779892442    3.162345686380    6.243576451618
 H   -0.302639892442    1.604285686380    6.869836451618
 H   -1.950809892442    1.700805686380    6.181816451618
 C   -0.919049892442    2.071305686380    6.084786451618
 S   -0.216199892442    1.687725686380    4.437146451618
RB   -0.085059892442    0.664005686380    1.745716451618
 S    0.369887217020   -2.887454241172   -7.591314956200
 C    1.072735700518   -3.271035939949   -9.238957726830
 H    1.075459977712   -4.362067796163   -9.397748368686
 H    0.456325514896   -2.804014843691  -10.023998935373
 H    2.104492392897   -2.900532177390   -9.335990670528
