11

 H   -0.826172766783    2.416006455941    4.281399494072
 H   -0.207032766783    0.857946455941    4.907659494072
 H   -1.855202766783    0.954466455941    4.219639494072
 C   -0.823442766783    1.324966455941    4.122609494072
 S   -0.120592766783    0.941386455941    2.474969494072
RB    0.010547233217   -0.082333544059   -0.216460505928
 S    0.101536655109   -0.792625529569   -2.083866787492
 C    0.804385138607   -1.176207228346   -3.731509558122
 H    0.807109415801   -2.267239084559   -3.890300199978
 H    0.187974952985   -0.709186132087   -4.516550766665
 H    1.836141830985   -0.805703465787   -3.828542501820
