11

 H   -0.829758033995    2.443994177083    4.354981129980
 H   -0.210618033995    0.885934177083    4.981241129980
 H   -1.858788033995    0.982454177083    4.293221129980
 C   -0.827028033995    1.352954177083    4.196191129980
 S   -0.124178033995    0.969374177083    2.548551129980
RB    0.006961966005   -0.054345822917   -0.142878870020
 S    0.111599801181   -0.871181606254   -2.290396093819
 C    0.814448284679   -1.254763305031   -3.938038864448
 H    0.817172561872   -2.345795161245   -4.096829506305
 H    0.198038099057   -0.787742208773   -4.723080072992
 H    1.846204977057   -0.884259542472   -4.035071808146
