11

 H   -0.844099102844    2.555945061649    4.649307673611
 H   -0.224959102844    0.997885061649    5.275567673611
 H   -1.873129102844    1.094405061649    4.587547673611
 C   -0.841369102844    1.464905061649    4.490517673611
 S   -0.138519102844    1.081325061649    2.842877673611
RB   -0.007379102844    0.057605061649    0.151447673611
 S    0.151852385468   -1.185405912995   -3.116513319125
 C    0.854700868966   -1.568987611772   -4.764156089754
 H    0.857425146159   -2.660019467985   -4.922946731611
 H    0.238290683344   -1.101966515513   -5.549197298298
 H    1.886457561344   -1.198483849213   -4.861189033452
