11

 H   -0.845294191915    2.565274302029    4.673834885581
 H   -0.226154191915    1.007214302029    5.300094885581
 H   -1.874324191915    1.103734302029    4.612074885581
 C   -0.842564191915    1.474234302029    4.515044885581
 S   -0.139714191915    1.090654302029    2.867404885581
RB   -0.008574191915    0.066934302029    0.175974885581
 S    0.155206767492   -1.211591271890   -3.185356421234
 C    0.858055250989   -1.595172970667   -4.832999191863
 H    0.860779528183   -2.686204826880   -4.991789833720
 H    0.241645065368   -1.128151874408   -5.618040400407
 H    1.889811943368   -1.224669208108   -4.930032135561
