11

 H   -0.847684370057    2.583932782790    4.722889309519
 H   -0.228544370057    1.025872782790    5.349149309519
 H   -1.876714370057    1.122392782790    4.661129309519
 C   -0.844954370057    1.492892782790    4.564099309519
 S   -0.142104370057    1.109312782790    2.916459309519
RB   -0.010964370057    0.085592782790    0.225029309519
 S    0.161915531539   -1.263961989680   -3.323042625451
 C    0.864764015037   -1.647543688457   -4.970685396081
 H    0.867488292231   -2.738575544670   -5.129476037937
 H    0.248353829415   -1.180522592198   -5.755726604624
 H    1.896520707415   -1.277039925898   -5.067718339779
