11

 H   -0.850074548198    2.602591263551    4.771943733458
 H   -0.230934548198    1.044531263551    5.398203733458
 H   -1.879104548198    1.141051263551    4.710183733458
 C   -0.847344548198    1.511551263551    4.613153733458
 S   -0.144494548198    1.127971263551    2.965513733458
RB   -0.013354548198    0.104251263551    0.274083733458
 S    0.168624295587   -1.316332707470   -3.460728829669
 C    0.871472779085   -1.699914406247   -5.108371600299
 H    0.874197056279   -2.790946262460   -5.267162242155
 H    0.255062593463   -1.232893309988   -5.893412808842
 H    1.903229471463   -1.329410643688   -5.205404543997
