11

 H   -0.856049993552    2.649237465453    4.894579793305
 H   -0.236909993552    1.091177465453    5.520839793305
 H   -1.885079993552    1.187697465453    4.832819793305
 C   -0.853319993552    1.558197465453    4.735789793305
 S   -0.150469993552    1.174617465453    3.088149793305
RB   -0.019329993552    0.150897465453    0.396719793305
 S    0.185396205707   -1.447259501945   -3.804944340213
 C    0.888244689204   -1.830841200722   -5.452587110843
 H    0.890968966398   -2.921873056935   -5.611377752699
 H    0.271834503583   -1.363820104463   -6.237628319386
 H    1.920001381583   -1.460337438163   -5.549620054541
