11

 H   -0.858440171693    2.667895946214    4.943634217243
 H   -0.239300171693    1.109835946214    5.569894217243
 H   -1.887470171693    1.206355946214    4.881874217243
 C   -0.855710171693    1.576855946214    4.784844217243
 S   -0.152860171693    1.193275946214    3.137204217243
RB   -0.021720171693    0.169555946214    0.445774217243
 S    0.192104969754   -1.499630219735   -3.942630544431
 C    0.894953453252   -1.883211918512   -5.590273315061
 H    0.897677730446   -2.974243774725   -5.749063956917
 H    0.278543267630   -1.416190822254   -6.375314523604
 H    1.926710145630   -1.512708155953   -5.687306258759
