11

 H   -0.859635260764    2.677225186595    4.968161429213
 H   -0.240495260764    1.119165186595    5.594421429213
 H   -1.888665260764    1.215685186595    4.906401429213
 C   -0.856905260764    1.586185186595    4.809371429213
 S   -0.154055260764    1.202605186595    3.161731429213
RB   -0.022915260764    0.178885186595    0.470301429213
 S    0.195459351778   -1.525815578630   -4.011473646540
 C    0.898307835276   -1.909397277407   -5.659116417170
 H    0.901032112470   -3.000429133621   -5.817907059026
 H    0.281897649654   -1.442376181149   -6.444157625713
 H    1.930064527654   -1.538893514848   -5.756149360867
