11

 H   -0.863220527976    2.705212907736    5.041743065121
 H   -0.244080527976    1.147152907736    5.668003065121
 H   -1.892250527976    1.243672907736    4.979983065121
 C   -0.860490527976    1.614172907736    4.882953065121
 S   -0.157640527976    1.230592907736    3.235313065121
RB   -0.026500527976    0.206872907736    0.543883065121
 S    0.205522497850   -1.604371655315   -4.218002952867
 C    0.908370981348   -1.987953354092   -5.865645723496
 H    0.911095258541   -3.078985210306   -6.024436365352
 H    0.291960795726   -1.520932257834   -6.650686932039
 H    1.940127673726   -1.617449591533   -5.962678667194
