11

 H   -0.866805795188    2.733200628878    5.115324701029
 H   -0.247665795188    1.175140628878    5.741584701029
 H   -1.895835795188    1.271660628878    5.053564701029
 C   -0.864075795188    1.642160628878    4.956534701029
 S   -0.161225795188    1.258580628878    3.308894701029
RB   -0.030085795188    0.234860628878    0.617464701029
 S    0.215585643922   -1.682927732000   -4.424532259193
 C    0.918434127419   -2.066509430777   -6.072175029823
 H    0.921158404613   -3.157541286991   -6.230965671679
 H    0.302023941798   -1.599488334519   -6.857216238366
 H    1.950190819798   -1.696005668219   -6.169207973521
