11

 H   -0.868000884259    2.742529869258    5.139851912998
 H   -0.248860884259    1.184469869258    5.766111912998
 H   -1.897030884259    1.280989869258    5.078091912998
 C   -0.865270884259    1.651489869258    4.981061912998
 S   -0.162420884259    1.267909869258    3.333421912998
RB   -0.031280884259    0.244189869258    0.641991912998
 S    0.218940025945   -1.709113090895   -4.493375361302
 C    0.921788509443   -2.092694789672   -6.141018131932
 H    0.924512786637   -3.183726645886   -6.299808773788
 H    0.305378323821   -1.625673693414   -6.926059340475
 H    1.953545201822   -1.722191027114   -6.238051075629
