11

 H   -0.872781240542    2.779846830780    5.237960760875
 H   -0.253641240542    1.221786830780    5.864220760875
 H   -1.901811240542    1.318306830780    5.176200760875
 C   -0.870051240542    1.688806830780    5.079170760875
 S   -0.167201240542    1.305226830780    3.431530760875
RB   -0.036061240542    0.281506830780    0.740100760875
 S    0.232357554041   -1.813854526476   -4.768747769737
 C    0.935206037539   -2.197436225252   -6.416390540367
 H    0.937930314732   -3.288468081466   -6.575181182223
 H    0.318795851917   -1.730415128994   -7.201431748910
 H    1.966962729917   -1.826932462694   -6.513423484065
