11

 H   -0.876366507754    2.807834551922    5.311542396783
 H   -0.257226507754    1.249774551922    5.937802396783
 H   -1.905396507754    1.346294551922    5.249782396783
 C   -0.873636507754    1.716794551922    5.152752396783
 S   -0.170786507754    1.333214551922    3.505112396783
RB   -0.039646507754    0.309494551922    0.813682396783
 S    0.242420700113   -1.892410603161   -4.975277076064
 C    0.945269183611   -2.275992301938   -6.622919846694
 H    0.947993460804   -3.367024158151   -6.781710488550
 H    0.328858997989   -1.808971205679   -7.407961055237
 H    1.977025875989   -1.905488539379   -6.719952790391
