11

 H   -0.878756685896    2.826493032683    5.360596820722
 H   -0.259616685896    1.268433032683    5.986856820722
 H   -1.907786685896    1.364953032683    5.298836820722
 C   -0.876026685896    1.735453032683    5.201806820722
 S   -0.173176685896    1.351873032683    3.554166820722
RB   -0.042036685896    0.328153032683    0.862736820722
 S    0.249129464160   -1.944781320951   -5.112963280282
 C    0.951977947658   -2.328363019728   -6.760606050911
 H    0.954702224852   -3.419394875941   -6.919396692768
 H    0.335567762036   -1.861341923469   -7.545647259454
 H    1.983734640037   -1.957859257169   -6.857638994609
