11

 H   -0.879951774966    2.835822273063    5.385124032691
 H   -0.260811774966    1.277762273063    6.011384032691
 H   -1.908981774966    1.374282273063    5.323364032691
 C   -0.877221774966    1.744782273063    5.226334032691
 S   -0.174371774966    1.361202273063    3.578694032691
RB   -0.043231774966    0.337482273063    0.887264032691
 S    0.252483846184   -1.970966679846   -5.181806382390
 C    0.955332329682   -2.354548378623   -6.829449153020
 H    0.958056606876   -3.445580234836   -6.988239794876
 H    0.338922144060   -1.887527282364   -7.614490361563
 H    1.987089022060   -1.984044616064   -6.926482096718
