11

 H   -0.881146864037    2.845151513444    5.409651244661
 H   -0.262006864037    1.287091513444    6.035911244661
 H   -1.910176864037    1.383611513444    5.347891244661
 C   -0.878416864037    1.754111513444    5.250861244661
 S   -0.175566864037    1.370531513444    3.603221244661
RB   -0.044426864037    0.346811513444    0.911791244661
 S    0.255838228208   -1.997152038741   -5.250649484499
 C    0.958686711706   -2.380733737518   -6.898292255129
 H    0.961410988900   -3.471765593731   -7.057082896985
 H    0.342276526084   -1.913712641259   -7.683333463672
 H    1.990443404084   -2.010229974959   -6.995325198827
