11

 H   -0.882341953108    2.854480753824    5.434178456630
 H   -0.263201953108    1.296420753824    6.060438456630
 H   -1.911371953108    1.392940753824    5.372418456630
 C   -0.879611953108    1.763440753824    5.275388456630
 S   -0.176761953108    1.379860753824    3.627748456630
RB   -0.045621953108    0.356140753824    0.936318456630
 S    0.259192610232   -2.023337397636   -5.319492586608
 C    0.962041093730   -2.406919096413   -6.967135357238
 H    0.964765370924   -3.497950952626   -7.125925999094
 H    0.345630908108   -1.939898000154   -7.752176565781
 H    1.993797786108   -2.036415333854   -7.064168300936
