11

 H   -0.883537042179    2.863809994205    5.458705668599
 H   -0.264397042179    1.305749994205    6.084965668599
 H   -1.912567042179    1.402269994205    5.396945668599
 C   -0.880807042179    1.772769994205    5.299915668599
 S   -0.177957042179    1.389189994205    3.652275668599
RB   -0.046817042179    0.365469994205    0.960845668599
 S    0.262546992256   -2.049522756531   -5.388335688717
 C    0.965395475754   -2.433104455308   -7.035978459347
 H    0.968119752947   -3.524136311521   -7.194769101203
 H    0.348985290132   -1.966083359049   -7.821019667890
 H    1.997152168132   -2.062600692749   -7.133011403044
