11

 H   -0.884732131249    2.873139234585    5.483232880569
 H   -0.265592131249    1.315079234585    6.109492880569
 H   -1.913762131249    1.411599234585    5.421472880569
 C   -0.882002131249    1.782099234585    5.324442880569
 S   -0.179152131249    1.398519234585    3.676802880569
RB   -0.048012131249    0.374799234585    0.985372880569
 S    0.265901374280   -2.075708115426   -5.457178790826
 C    0.968749857778   -2.459289814203   -7.104821561455
 H    0.971474134971   -3.550321670416   -7.263612203312
 H    0.352339672156   -1.992268717944   -7.889862769999
 H    2.000506550156   -2.088786051644   -7.201854505153
