11

 H   -0.885927220320    2.882468474966    5.507760092538
 H   -0.266787220320    1.324408474966    6.134020092538
 H   -1.914957220320    1.420928474966    5.446000092538
 C   -0.883197220320    1.791428474966    5.348970092538
 S   -0.180347220320    1.407848474966    3.701330092538
RB   -0.049207220320    0.384128474966    1.009900092538
 S    0.269255756304   -2.101893474321   -5.526021892935
 C    0.972104239802   -2.485475173098   -7.173664663564
 H    0.974828516995   -3.576507029311   -7.332455305421
 H    0.355694054180   -2.018454076839   -7.958705872108
 H    2.003860932180   -2.114971410539   -7.270697607262
