11

 H   -0.887122309391    2.891797715346    5.532287304507
 H   -0.267982309391    1.333737715346    6.158547304507
 H   -1.916152309391    1.430257715346    5.470527304507
 C   -0.884392309391    1.800757715346    5.373497304507
 S   -0.181542309391    1.417177715346    3.725857304507
RB   -0.050402309391    0.393457715346    1.034427304507
 S    0.272610138328   -2.128078833216   -5.594864995044
 C    0.975458621826   -2.511660531993   -7.242507765673
 H    0.978182899019   -3.602692388206   -7.401298407529
 H    0.359048436204   -2.044639435734   -8.027548974216
 H    2.007215314204   -2.141156769434   -7.339540709371
