11

 H   -0.891902665674    2.929114676868    5.630396152385
 H   -0.272762665674    1.371054676868    6.256656152385
 H   -1.920932665674    1.467574676868    5.568636152385
 C   -0.889172665674    1.838074676868    5.471606152385
 S   -0.186322665674    1.454494676868    3.823966152385
RB   -0.055182665674    0.430774676868    1.132536152385
 S    0.286027666423   -2.232820268796   -5.870237403479
 C    0.988876149921   -2.616401967573   -7.517880174109
 H    0.991600427115   -3.707433823787   -7.676670815965
 H    0.372465964299   -2.149380871315   -8.302921382652
 H    2.020632842299   -2.245898205014   -7.614913117806
