11

 H   -0.893097754745    2.938443917248    5.654923364354
 H   -0.273957754745    1.380383917248    6.281183364354
 H   -1.922127754745    1.476903917248    5.593163364354
 C   -0.890367754745    1.847403917248    5.496133364354
 S   -0.187517754745    1.463823917248    3.848493364354
RB   -0.056377754745    0.440103917248    1.157063364354
 S    0.289382048447   -2.259005627691   -5.939080505588
 C    0.992230531945   -2.642587326468   -7.586723276217
 H    0.994954809139   -3.733619182682   -7.745513918074
 H    0.375820346323   -2.175566230210   -8.371764484761
 H    2.023987224323   -2.272083563909   -7.683756219915
