11

 H   -0.896683021957    2.966431638390    5.728505000262
 H   -0.277543021957    1.408371638390    6.354765000262
 H   -1.925713021957    1.504891638390    5.666745000262
 C   -0.893953021957    1.875391638390    5.569715000262
 S   -0.191103021957    1.491811638390    3.922075000262
RB   -0.059963021957    0.468091638390    1.230645000262
 S    0.299445194519   -2.337561704376   -6.145609811914
 C    1.002293678017   -2.721143403153   -7.793252582544
 H    1.005017955210   -3.812175259367   -7.952043224400
 H    0.385883492395   -2.254122306895   -8.578293791087
 H    2.034050370395   -2.350639640594   -7.890285526242
