11

 H   -0.897878111028    2.975760878770    5.753032212231
 H   -0.278738111028    1.417700878770    6.379292212231
 H   -1.926908111028    1.514220878770    5.691272212231
 C   -0.895148111028    1.884720878770    5.594242212231
 S   -0.192298111028    1.501140878770    3.946602212231
RB   -0.061158111028    0.477420878770    1.255172212231
 S    0.302799576543   -2.363747063271   -6.214452914023
 C    1.005648060041   -2.747328762048   -7.862095684653
 H    1.008372337234   -3.838360618262   -8.020886326509
 H    0.389237874419   -2.280307665790   -8.647136893196
 H    2.037404752419   -2.376824999490   -7.959128628351
