11

 H   -0.903853556381    3.022407080673    5.875668272078
 H   -0.284713556381    1.464347080673    6.501928272078
 H   -1.932883556381    1.560867080673    5.813908272078
 C   -0.901123556381    1.931367080673    5.716878272078
 S   -0.198273556381    1.547787080673    4.069238272078
RB   -0.067133556381    0.524067080673    1.377808272078
 S    0.319571486662   -2.494673857747   -6.558668424568
 C    1.022419970160   -2.878255556523   -8.206311195197
 H    1.025144247354   -3.969287412737   -8.365101837053
 H    0.406009784538   -2.411234460265   -8.991352403740
 H    2.054176662538   -2.507751793965   -8.303344138895
