11

 H   -0.907438823593    3.050394801814    5.949249907986
 H   -0.288298823593    1.492334801814    6.575509907986
 H   -1.936468823593    1.588854801814    5.887489907986
 C   -0.904708823593    1.959354801814    5.790459907986
 S   -0.201858823593    1.575774801814    4.142819907986
RB   -0.070718823593    0.552054801814    1.451389907986
 S    0.329634632734   -2.573229934432   -6.765197730894
 C    1.032483116232   -2.956811633209   -8.412840501524
 H    1.035207393425   -4.047843489422   -8.571631143380
 H    0.416072930610   -2.489790536950   -9.197881710067
 H    2.064239808610   -2.586307870650   -8.509873445222
