11

 H   -0.909829001735    3.069053282575    5.998304331925
 H   -0.290689001735    1.510993282575    6.624564331925
 H   -1.938859001735    1.607513282575    5.936544331925
 C   -0.907099001735    1.978013282575    5.839514331925
 S   -0.204249001735    1.594433282575    4.191874331925
RB   -0.073109001735    0.570713282575    1.500444331925
 S    0.336343396782   -2.625600652222   -6.902883935112
 C    1.039191880279   -3.009182350999   -8.550526705741
 H    1.041916157473   -4.100214207212   -8.709317347598
 H    0.422781694658   -2.542161254740   -9.335567914285
 H    2.070948572658   -2.638678588440   -8.647559649439
