11

 H   -0.915804447089    3.115699484478    6.120940391771
 H   -0.296664447089    1.557639484478    6.747200391771
 H   -1.944834447089    1.654159484478    6.059180391771
 C   -0.913074447089    2.024659484478    5.962150391771
 S   -0.210224447089    1.641079484478    4.314510391771
RB   -0.079084447089    0.617359484478    1.623080391771
 S    0.353115306901   -2.756527446697   -7.247099445656
 C    1.055963790399   -3.140109145474   -8.894742216286
 H    1.058688067592   -4.231141001687   -9.053532858142
 H    0.439553604777   -2.673088049215   -9.679783424829
 H    2.087720482777   -2.769605382915   -8.991775159983
