11

 H   -0.920584803372    3.153016445999    6.219049239649
 H   -0.301444803372    1.594956445999    6.845309239649
 H   -1.949614803372    1.691476445999    6.157289239649
 C   -0.917854803372    2.061976445999    6.060259239649
 S   -0.215004803372    1.678396445999    4.412619239649
RB   -0.083864803372    0.654676445999    1.721189239649
 S    0.366532834997   -2.861268882277   -7.522471854091
 C    1.069381318494   -3.244850581054   -9.170114624721
 H    1.072105595688   -4.335882437268   -9.328905266577
 H    0.452971132873   -2.777829484796   -9.955155833264
 H    2.101138010873   -2.874346818495   -9.267147568419
