11

 C   -1.364351494953    0.438826771163    0.000000000000
 H   -2.184608494953   -0.273471228837    0.000000000000
 C   -1.364351494953    1.821900771163    0.000000000000
 H   -2.184608494953    2.534198771163    0.000000000000
 N   -0.038317494953    0.051243771163    0.000000000000
 H    0.297501505047   -0.910186228837    0.000000000000
 N   -0.038317494953    2.209483771163    0.000000000000
 H    0.297501505047    3.170913771163    0.000000000000
 C    0.767216505047    1.130363771163    0.000000000000
 H    1.853345505047    1.130363771163    0.000000000000
CL    0.759157380060   -2.231879783738    0.000000000000
