11

 C   -1.397609840842    0.534043454818    0.000000000000
 H   -2.217866840842   -0.178254545182    0.000000000000
 C   -1.397609840842    1.917117454818    0.000000000000
 H   -2.217866840842    2.629415454818    0.000000000000
 N   -0.071575840842    0.146460454818    0.000000000000
 H    0.264243159158   -0.814969545182    0.000000000000
 N   -0.071575840842    2.304700454818    0.000000000000
 H    0.264243159158    3.266130454818    0.000000000000
 C    0.733958159158    1.225580454818    0.000000000000
 H    1.820087159158    1.225580454818    0.000000000000
CL    0.824825293102   -2.419883147562    0.000000000000
