11

 C   -1.497384878510    0.819693505782    0.000000000000
 H   -2.317641878510    0.107395505782    0.000000000000
 C   -1.497384878510    2.202767505782    0.000000000000
 H   -2.317641878510    2.915065505782    0.000000000000
 N   -0.171350878510    0.432110505782    0.000000000000
 H    0.164468121490   -0.529319494218    0.000000000000
 N   -0.171350878510    2.590350505782    0.000000000000
 H    0.164468121490    3.551780505782    0.000000000000
 C    0.634183121490    1.511230505782    0.000000000000
 H    1.720312121490    1.511230505782    0.000000000000
CL    1.021829032228   -2.983893239034    0.000000000000
