11

 C   -1.508470993806    0.851432400334    0.000000000000
 H   -2.328727993806    0.139134400334    0.000000000000
 C   -1.508470993806    2.234506400334    0.000000000000
 H   -2.328727993806    2.946804400334    0.000000000000
 N   -0.182436993806    0.463849400334    0.000000000000
 H    0.153382006194   -0.497580599666    0.000000000000
 N   -0.182436993806    2.622089400334    0.000000000000
 H    0.153382006194    3.583519400334    0.000000000000
 C    0.623097006194    1.542969400334    0.000000000000
 H    1.709226006194    1.542969400334    0.000000000000
CL    1.043718336575   -3.046561026975    0.000000000000
