11

 C   -1.519557109102    0.883171294885    0.000000000000
 H   -2.339814109102    0.170873294885    0.000000000000
 C   -1.519557109102    2.266245294885    0.000000000000
 H   -2.339814109102    2.978543294885    0.000000000000
 N   -0.193523109102    0.495588294885    0.000000000000
 H    0.142295890898   -0.465841705115    0.000000000000
 N   -0.193523109102    2.653828294885    0.000000000000
 H    0.142295890898    3.615258294885    0.000000000000
 C    0.612010890898    1.574708294885    0.000000000000
 H    1.698139890898    1.574708294885    0.000000000000
CL    1.065607640923   -3.109228814916    0.000000000000
