11

 C   -1.530643224399    0.914910189437    0.000000000000
 H   -2.350900224399    0.202612189437    0.000000000000
 C   -1.530643224399    2.297984189437    0.000000000000
 H   -2.350900224399    3.010282189437    0.000000000000
 N   -0.204609224399    0.527327189437    0.000000000000
 H    0.131209775601   -0.434102810563    0.000000000000
 N   -0.204609224399    2.685567189437    0.000000000000
 H    0.131209775601    3.646997189437    0.000000000000
 C    0.600924775601    1.606447189437    0.000000000000
 H    1.687053775601    1.606447189437    0.000000000000
CL    1.087496945270   -3.171896602858    0.000000000000
