11

 C   -1.541729339695    0.946649083989    0.000000000000
 H   -2.361986339695    0.234351083989    0.000000000000
 C   -1.541729339695    2.329723083989    0.000000000000
 H   -2.361986339695    3.042021083989    0.000000000000
 N   -0.215695339695    0.559066083989    0.000000000000
 H    0.120123660305   -0.402363916011    0.000000000000
 N   -0.215695339695    2.717306083989    0.000000000000
 H    0.120123660305    3.678736083989    0.000000000000
 C    0.589838660305    1.638186083989    0.000000000000
 H    1.675967660305    1.638186083989    0.000000000000
CL    1.109386249617   -3.234564390799    0.000000000000
