11

 C   -1.552815454991    0.978387978540    0.000000000000
 H   -2.373072454991    0.266089978540    0.000000000000
 C   -1.552815454991    2.361461978540    0.000000000000
 H   -2.373072454991    3.073759978540    0.000000000000
 N   -0.226781454991    0.590804978540    0.000000000000
 H    0.109037545009   -0.370625021460    0.000000000000
 N   -0.226781454991    2.749044978540    0.000000000000
 H    0.109037545009    3.710474978540    0.000000000000
 C    0.578752545009    1.669924978540    0.000000000000
 H    1.664881545009    1.669924978540    0.000000000000
CL    1.131275553965   -3.297232178740    0.000000000000
