11

 C   -1.563901570288    1.010126873092    0.000000000000
 H   -2.384158570288    0.297828873092    0.000000000000
 C   -1.563901570288    2.393200873092    0.000000000000
 H   -2.384158570288    3.105498873092    0.000000000000
 N   -0.237867570288    0.622543873092    0.000000000000
 H    0.097951429712   -0.338886126908    0.000000000000
 N   -0.237867570288    2.780783873092    0.000000000000
 H    0.097951429712    3.742213873092    0.000000000000
 C    0.567666429712    1.701663873092    0.000000000000
 H    1.653795429712    1.701663873092    0.000000000000
CL    1.153164858312   -3.359899966682    0.000000000000
