11

 C   -1.586073800881    1.073604662195    0.000000000000
 H   -2.406330800881    0.361306662195    0.000000000000
 C   -1.586073800881    2.456678662195    0.000000000000
 H   -2.406330800881    3.168976662195    0.000000000000
 N   -0.260039800881    0.686021662195    0.000000000000
 H    0.075779199119   -0.275408337805    0.000000000000
 N   -0.260039800881    2.844261662195    0.000000000000
 H    0.075779199119    3.805691662195    0.000000000000
 C    0.545494199119    1.765141662195    0.000000000000
 H    1.631623199119    1.765141662195    0.000000000000
CL    1.196943467007   -3.485235542564    0.000000000000
