11

 C   -1.597159916177    1.105343556746    0.000000000000
 H   -2.417416916177    0.393045556746    0.000000000000
 C   -1.597159916177    2.488417556746    0.000000000000
 H   -2.417416916177    3.200715556746    0.000000000000
 N   -0.271125916177    0.717760556746    0.000000000000
 H    0.064693083823   -0.243669443254    0.000000000000
 N   -0.271125916177    2.876000556746    0.000000000000
 H    0.064693083823    3.837430556746    0.000000000000
 C    0.534408083823    1.796880556746    0.000000000000
 H    1.620537083823    1.796880556746    0.000000000000
CL    1.218832771354   -3.547903330506    0.000000000000
