11

 C   -1.608246031473    1.137082451298    0.000000000000
 H   -2.428503031473    0.424784451298    0.000000000000
 C   -1.608246031473    2.520156451298    0.000000000000
 H   -2.428503031473    3.232454451298    0.000000000000
 N   -0.282212031473    0.749499451298    0.000000000000
 H    0.053606968527   -0.211930548702    0.000000000000
 N   -0.282212031473    2.907739451298    0.000000000000
 H    0.053606968527    3.869169451298    0.000000000000
 C    0.523321968527    1.828619451298    0.000000000000
 H    1.609450968527    1.828619451298    0.000000000000
CL    1.240722075701   -3.610571118447    0.000000000000
