11

 C   -1.663676607955    1.295776924056    0.000000000000
 H   -2.483933607955    0.583478924056    0.000000000000
 C   -1.663676607955    2.678850924056    0.000000000000
 H   -2.483933607955    3.391148924056    0.000000000000
 N   -0.337642607955    0.908193924056    0.000000000000
 H   -0.001823607955   -0.053236075944    0.000000000000
 N   -0.337642607955    3.066433924056    0.000000000000
 H   -0.001823607955    4.027863924056    0.000000000000
 C    0.467891392045    1.987313924056    0.000000000000
 H    1.554020392045    1.987313924056    0.000000000000
CL    1.350168597438   -3.923910058154    0.000000000000
