11

 C   -1.696934953845    1.390993607711    0.000000000000
 H   -2.517191953845    0.678695607711    0.000000000000
 C   -1.696934953845    2.774067607711    0.000000000000
 H   -2.517191953845    3.486365607711    0.000000000000
 N   -0.370900953845    1.003410607711    0.000000000000
 H   -0.035081953845    0.041980607711    0.000000000000
 N   -0.370900953845    3.161650607711    0.000000000000
 H   -0.035081953845    4.123080607711    0.000000000000
 C    0.434633046155    2.082530607711    0.000000000000
 H    1.520762046155    2.082530607711    0.000000000000
CL    1.415836510480   -4.111913421978    0.000000000000
