11

 C   -1.708021069141    1.422732502262    0.000000000000
 H   -2.528278069141    0.710434502262    0.000000000000
 C   -1.708021069141    2.805806502262    0.000000000000
 H   -2.528278069141    3.518104502262    0.000000000000
 N   -0.381987069141    1.035149502262    0.000000000000
 H   -0.046168069141    0.073719502262    0.000000000000
 N   -0.381987069141    3.193389502262    0.000000000000
 H   -0.046168069141    4.154819502262    0.000000000000
 C    0.423546930859    2.114269502262    0.000000000000
 H    1.509675930859    2.114269502262    0.000000000000
CL    1.437725814828   -4.174581209919    0.000000000000
