11

 C   -1.774537760919    1.613165869572    0.000000000000
 H   -2.594794760919    0.900867869572    0.000000000000
 C   -1.774537760919    2.996239869572    0.000000000000
 H   -2.594794760919    3.708537869572    0.000000000000
 N   -0.448503760919    1.225582869572    0.000000000000
 H   -0.112684760919    0.264152869572    0.000000000000
 N   -0.448503760919    3.383822869572    0.000000000000
 H   -0.112684760919    4.345252869572    0.000000000000
 C    0.357030239081    2.304702869572    0.000000000000
 H    1.443159239081    2.304702869572    0.000000000000
CL    1.569061640912   -4.550587937567    0.000000000000
