11

 C   -1.841054452698    1.803599236881    0.000000000000
 H   -2.661311452698    1.091301236881    0.000000000000
 C   -1.841054452698    3.186673236881    0.000000000000
 H   -2.661311452698    3.898971236881    0.000000000000
 N   -0.515020452698    1.416016236881    0.000000000000
 H   -0.179201452698    0.454586236881    0.000000000000
 N   -0.515020452698    3.574256236881    0.000000000000
 H   -0.179201452698    4.535686236881    0.000000000000
 C    0.290513547302    2.495136236881    0.000000000000
 H    1.376642547302    2.495136236881    0.000000000000
CL    1.700397466996   -4.926594665215    0.000000000000
