11

 C   -1.863226683291    1.867077025984    0.000000000000
 H   -2.683483683291    1.154779025984    0.000000000000
 C   -1.863226683291    3.250151025984    0.000000000000
 H   -2.683483683291    3.962449025984    0.000000000000
 N   -0.537192683291    1.479494025984    0.000000000000
 H   -0.201373683291    0.518064025984    0.000000000000
 N   -0.537192683291    3.637734025984    0.000000000000
 H   -0.201373683291    4.599164025984    0.000000000000
 C    0.268341316709    2.558614025984    0.000000000000
 H    1.354470316709    2.558614025984    0.000000000000
CL    1.744176075691   -5.051930241098    0.000000000000
