11

 C   -1.885398913883    1.930554815087    0.000000000000
 H   -2.705655913883    1.218256815087    0.000000000000
 C   -1.885398913883    3.313628815087    0.000000000000
 H   -2.705655913883    4.025926815087    0.000000000000
 N   -0.559364913883    1.542971815087    0.000000000000
 H   -0.223545913883    0.581541815087    0.000000000000
 N   -0.559364913883    3.701211815087    0.000000000000
 H   -0.223545913883    4.662641815087    0.000000000000
 C    0.246169086117    2.622091815087    0.000000000000
 H    1.332298086117    2.622091815087    0.000000000000
CL    1.787954684385   -5.177265816981    0.000000000000
