11

 C   -1.896485029180    1.962293709639    0.000000000000
 H   -2.716742029180    1.249995709639    0.000000000000
 C   -1.896485029180    3.345367709639    0.000000000000
 H   -2.716742029180    4.057665709639    0.000000000000
 N   -0.570451029180    1.574710709639    0.000000000000
 H   -0.234632029180    0.613280709639    0.000000000000
 N   -0.570451029180    3.732950709639    0.000000000000
 H   -0.234632029180    4.694380709639    0.000000000000
 C    0.235082970820    2.653830709639    0.000000000000
 H    1.321211970820    2.653830709639    0.000000000000
CL    1.809843988733   -5.239933604922    0.000000000000
