11

 C   -1.929743375069    2.057510393294    0.000000000000
 H   -2.750000375069    1.345212393294    0.000000000000
 C   -1.929743375069    3.440584393294    0.000000000000
 H   -2.750000375069    4.152882393294    0.000000000000
 N   -0.603709375069    1.669927393294    0.000000000000
 H   -0.267890375069    0.708497393294    0.000000000000
 N   -0.603709375069    3.828167393294    0.000000000000
 H   -0.267890375069    4.789597393294    0.000000000000
 C    0.201824624931    2.749047393294    0.000000000000
 H    1.287953624931    2.749047393294    0.000000000000
CL    1.875511901775   -5.427936968746    0.000000000000
