11

 C   -1.940829490365    2.089249287845    0.000000000000
 H   -2.761086490365    1.376951287845    0.000000000000
 C   -1.940829490365    3.472323287845    0.000000000000
 H   -2.761086490365    4.184621287845    0.000000000000
 N   -0.614795490365    1.701666287845    0.000000000000
 H   -0.278976490365    0.740236287845    0.000000000000
 N   -0.614795490365    3.859906287845    0.000000000000
 H   -0.278976490365    4.821336287845    0.000000000000
 C    0.190738509635    2.780786287845    0.000000000000
 H    1.276867509635    2.780786287845    0.000000000000
CL    1.897401206122   -5.490604756687    0.000000000000
