11

 C   -1.951915605662    2.120988182397    0.000000000000
 H   -2.772172605662    1.408690182397    0.000000000000
 C   -1.951915605662    3.504062182397    0.000000000000
 H   -2.772172605662    4.216360182397    0.000000000000
 N   -0.625881605662    1.733405182397    0.000000000000
 H   -0.290062605662    0.771975182397    0.000000000000
 N   -0.625881605662    3.891645182397    0.000000000000
 H   -0.290062605662    4.853075182397    0.000000000000
 C    0.179652394338    2.812525182397    0.000000000000
 H    1.265781394338    2.812525182397    0.000000000000
CL    1.919290510469   -5.553272544629    0.000000000000
