11

 C   -1.985173951551    2.216204866052    0.000000000000
 H   -2.805430951551    1.503906866052    0.000000000000
 C   -1.985173951551    3.599278866052    0.000000000000
 H   -2.805430951551    4.311576866052    0.000000000000
 N   -0.659139951551    1.828621866052    0.000000000000
 H   -0.323320951551    0.867191866052    0.000000000000
 N   -0.659139951551    3.986861866052    0.000000000000
 H   -0.323320951551    4.948291866052    0.000000000000
 C    0.146394048449    2.907741866052    0.000000000000
 H    1.232523048449    2.907741866052    0.000000000000
CL    1.984958423511   -5.741275908453    0.000000000000
