11

 C   -1.996260066847    2.247943760603    0.000000000000
 H   -2.816517066847    1.535645760603    0.000000000000
 C   -1.996260066847    3.631017760603    0.000000000000
 H   -2.816517066847    4.343315760603    0.000000000000
 N   -0.670226066847    1.860360760603    0.000000000000
 H   -0.334407066847    0.898930760603    0.000000000000
 N   -0.670226066847    4.018600760603    0.000000000000
 H   -0.334407066847    4.980030760603    0.000000000000
 C    0.135307933153    2.939480760603    0.000000000000
 H    1.221436933153    2.939480760603    0.000000000000
CL    2.006847727859   -5.803943696394    0.000000000000
