11

 C   -2.007346182144    2.279682655155    0.000000000000
 H   -2.827603182144    1.567384655155    0.000000000000
 C   -2.007346182144    3.662756655155    0.000000000000
 H   -2.827603182144    4.375054655155    0.000000000000
 N   -0.681312182144    1.892099655155    0.000000000000
 H   -0.345493182144    0.930669655155    0.000000000000
 N   -0.681312182144    4.050339655155    0.000000000000
 H   -0.345493182144    5.011769655155    0.000000000000
 C    0.124221817856    2.971219655155    0.000000000000
 H    1.210350817856    2.971219655155    0.000000000000
CL    2.028737032206   -5.866611484335    0.000000000000
