11

 C   -2.018432297440    2.311421549706    0.000000000000
 H   -2.838689297440    1.599123549706    0.000000000000
 C   -2.018432297440    3.694495549706    0.000000000000
 H   -2.838689297440    4.406793549706    0.000000000000
 N   -0.692398297440    1.923838549706    0.000000000000
 H   -0.356579297440    0.962408549706    0.000000000000
 N   -0.692398297440    4.082078549706    0.000000000000
 H   -0.356579297440    5.043508549706    0.000000000000
 C    0.113135702560    3.002958549706    0.000000000000
 H    1.199264702560    3.002958549706    0.000000000000
CL    2.050626336553   -5.929279272277    0.000000000000
