11

 C   -2.029518412737    2.343160444258    0.000000000000
 H   -2.849775412737    1.630862444258    0.000000000000
 C   -2.029518412737    3.726234444258    0.000000000000
 H   -2.849775412737    4.438532444258    0.000000000000
 N   -0.703484412737    1.955577444258    0.000000000000
 H   -0.367665412737    0.994147444258    0.000000000000
 N   -0.703484412737    4.113817444258    0.000000000000
 H   -0.367665412737    5.075247444258    0.000000000000
 C    0.102049587263    3.034697444258    0.000000000000
 H    1.188178587263    3.034697444258    0.000000000000
CL    2.072515640901   -5.991947060218    0.000000000000
