11

 C   -2.040604528033    2.374899338809    0.000000000000
 H   -2.860861528033    1.662601338809    0.000000000000
 C   -2.040604528033    3.757973338809    0.000000000000
 H   -2.860861528033    4.470271338809    0.000000000000
 N   -0.714570528033    1.987316338809    0.000000000000
 H   -0.378751528033    1.025886338809    0.000000000000
 N   -0.714570528033    4.145556338809    0.000000000000
 H   -0.378751528033    5.106986338809    0.000000000000
 C    0.090963471967    3.066436338809    0.000000000000
 H    1.177092471967    3.066436338809    0.000000000000
CL    2.094404945248   -6.054614848159    0.000000000000
