11

 C   -2.062776758626    2.438377127913    0.000000000000
 H   -2.883033758626    1.726079127913    0.000000000000
 C   -2.062776758626    3.821451127913    0.000000000000
 H   -2.883033758626    4.533749127913    0.000000000000
 N   -0.736742758626    2.050794127913    0.000000000000
 H   -0.400923758626    1.089364127913    0.000000000000
 N   -0.736742758626    4.209034127913    0.000000000000
 H   -0.400923758626    5.170464127913    0.000000000000
 C    0.068791241374    3.129914127913    0.000000000000
 H    1.154920241374    3.129914127913    0.000000000000
CL    2.138183553943   -6.179950424042    0.000000000000
