11

 C   -2.073862873922    2.470116022464    0.000000000000
 H   -2.894119873922    1.757818022464    0.000000000000
 C   -2.073862873922    3.853190022464    0.000000000000
 H   -2.894119873922    4.565488022464    0.000000000000
 N   -0.747828873922    2.082533022464    0.000000000000
 H   -0.412009873922    1.121103022464    0.000000000000
 N   -0.747828873922    4.240773022464    0.000000000000
 H   -0.412009873922    5.202203022464    0.000000000000
 C    0.057705126078    3.161653022464    0.000000000000
 H    1.143834126078    3.161653022464    0.000000000000
CL    2.160072858290   -6.242618211984    0.000000000000
