11

 C   -2.084948989219    2.501854917016    0.000000000000
 H   -2.905205989219    1.789556917016    0.000000000000
 C   -2.084948989219    3.884928917016    0.000000000000
 H   -2.905205989219    4.597226917016    0.000000000000
 N   -0.758914989219    2.114271917016    0.000000000000
 H   -0.423095989219    1.152841917016    0.000000000000
 N   -0.758914989219    4.272511917016    0.000000000000
 H   -0.423095989219    5.233941917016    0.000000000000
 C    0.046619010781    3.193391917016    0.000000000000
 H    1.132748010781    3.193391917016    0.000000000000
CL    2.181962162638   -6.305285999925    0.000000000000
