11

 C   -2.240154603368    2.946199440738    0.000000000000
 H   -3.060411603368    2.233901440738    0.000000000000
 C   -2.240154603368    4.329273440738    0.000000000000
 H   -3.060411603368    5.041571440738    0.000000000000
 N   -0.914120603368    2.558616440738    0.000000000000
 H   -0.578301603368    1.597186440738    0.000000000000
 N   -0.914120603368    4.716856440738    0.000000000000
 H   -0.578301603368    5.678286440738    0.000000000000
 C   -0.108586603368    3.637736440738    0.000000000000
 H    0.977542396632    3.637736440738    0.000000000000
CL    2.488412423500   -7.182635031104    0.000000000000
