11

 C   -2.262326833961    3.009677229841    0.000000000000
 H   -3.082583833961    2.297379229841    0.000000000000
 C   -2.262326833961    4.392751229841    0.000000000000
 H   -3.082583833961    5.105049229841    0.000000000000
 N   -0.936292833961    2.622094229841    0.000000000000
 H   -0.600473833961    1.660664229841    0.000000000000
 N   -0.936292833961    4.780334229841    0.000000000000
 H   -0.600473833961    5.741764229841    0.000000000000
 C   -0.130758833961    3.701214229841    0.000000000000
 H    0.955370166039    3.701214229841    0.000000000000
CL    2.532191032195   -7.307970606986    0.000000000000
