11

 C   -2.284499064554    3.073155018944    0.000000000000
 H   -3.104756064554    2.360857018944    0.000000000000
 C   -2.284499064554    4.456229018944    0.000000000000
 H   -3.104756064554    5.168527018944    0.000000000000
 N   -0.958465064554    2.685572018944    0.000000000000
 H   -0.622646064554    1.724142018944    0.000000000000
 N   -0.958465064554    4.843812018944    0.000000000000
 H   -0.622646064554    5.805242018944    0.000000000000
 C   -0.152931064554    3.764692018944    0.000000000000
 H    0.933197935446    3.764692018944    0.000000000000
CL    2.575969640890   -7.433306182869    0.000000000000
