11

 C   -2.295585179850    3.104893913496    0.000000000000
 H   -3.115842179850    2.392595913496    0.000000000000
 C   -2.295585179850    4.487967913496    0.000000000000
 H   -3.115842179850    5.200265913496    0.000000000000
 N   -0.969551179850    2.717310913496    0.000000000000
 H   -0.633732179850    1.755880913496    0.000000000000
 N   -0.969551179850    4.875550913496    0.000000000000
 H   -0.633732179850    5.836980913496    0.000000000000
 C   -0.164017179850    3.796430913496    0.000000000000
 H    0.922111820150    3.796430913496    0.000000000000
CL    2.597858945237   -7.495973970810    0.000000000000
