7

 C    0.322624318669    1.273414755216    0.000000000000
 O    0.322624318669   -0.161471244784    0.000000000000
 H    1.241634318669   -0.458272244784    0.000000000000
 H   -0.730694681331    1.581403755216    0.000000000000
 H    0.811290318669    1.684347755216    0.899440000000
 H    0.811290318669    1.684347755216   -0.899440000000
NA   -0.486392675706   -0.749256497077    0.000000000000
