7

 C    0.424044557025    1.347100871582    0.000000000000
 O    0.424044557025   -0.087785128418    0.000000000000
 H    1.343054557025   -0.384586128418    0.000000000000
 H   -0.629274442975    1.655089871582    0.000000000000
 H    0.912710557025    1.758033871582    0.899440000000
 H    0.912710557025    1.758033871582   -0.899440000000
NA   -0.627677535662   -0.851905956398    0.000000000000
