7

 C    0.593078287619    1.469911065526    0.000000000000
 O    0.593078287619    0.035025065526    0.000000000000
 H    1.512088287619   -0.261775934474    0.000000000000
 H   -0.460240712381    1.777900065526    0.000000000000
 H    1.081744287619    1.880844065526    0.899440000000
 H    1.081744287619    1.880844065526   -0.899440000000
NA   -0.863152302256   -1.022988388601    0.000000000000
