7

 C    0.626885033738    1.494473104314    0.000000000000
 O    0.626885033738    0.059587104314    0.000000000000
 H    1.545895033738   -0.237213895686    0.000000000000
 H   -0.426433966262    1.802462104314    0.000000000000
 H    1.115551033738    1.905406104314    0.899440000000
 H    1.115551033738    1.905406104314   -0.899440000000
NA   -0.910247255575   -1.057204875041    0.000000000000
