7

 C    3.365231469353    3.483998246201    0.000000000000
 O    3.365231469353    2.049112246201    0.000000000000
 H    4.284241469353    1.752311246201    0.000000000000
 H    2.311912469353    3.791987246201    0.000000000000
 H    3.853897469353    3.894931246201    0.899440000000
 H    3.853897469353    3.894931246201   -0.899440000000
NA   -4.724938474396   -3.828740276724    0.000000000000
