7

 C    0.694498525975    1.543597181892    0.000000000000
 O    0.694498525975    0.108711181892    0.000000000000
 H    1.613508525975   -0.188089818108    0.000000000000
 H   -0.358820474025    1.851586181892    0.000000000000
 H    1.183164525975    1.954530181892    0.899440000000
 H    1.183164525975    1.954530181892   -0.899440000000
NA   -1.004437162212   -1.125637847922    0.000000000000
