7

 C    0.728305272094    1.568159220681    0.000000000000
 O    0.728305272094    0.133273220681    0.000000000000
 H    1.647315272094   -0.163527779319    0.000000000000
 H   -0.325013727906    1.876148220681    0.000000000000
 H    1.216971272094    1.979092220681    0.899440000000
 H    1.216971272094    1.979092220681   -0.899440000000
NA   -1.051532115531   -1.159854334363    0.000000000000
