7

 C    0.795918764331    1.617283298258    0.000000000000
 O    0.795918764331    0.182397298258    0.000000000000
 H    1.714928764331   -0.114403701742    0.000000000000
 H   -0.257400235669    1.925272298258    0.000000000000
 H    1.284584764331    2.028216298258    0.899440000000
 H    1.284584764331    2.028216298258   -0.899440000000
NA   -1.145722022169   -1.228287307244    0.000000000000
