7

 C    0.931145748806    1.715531453413    0.000000000000
 O    0.931145748806    0.280645453413    0.000000000000
 H    1.850155748806   -0.016155546587    0.000000000000
 H   -0.122173251194    2.023520453413    0.000000000000
 H    1.419811748806    2.126464453413    0.899440000000
 H    1.419811748806    2.126464453413   -0.899440000000
NA   -1.334101835444   -1.365153253006    0.000000000000
