7

 C    1.032565987162    1.789217569779    0.000000000000
 O    1.032565987162    0.354331569779    0.000000000000
 H    1.951575987162    0.057530569779    0.000000000000
 H   -0.020753012838    2.097206569779    0.000000000000
 H    1.521231987162    2.200150569779    0.899440000000
 H    1.521231987162    2.200150569779   -0.899440000000
NA   -1.475386695400   -1.467802712328    0.000000000000
