7

 C    1.100179479399    1.838341647357    0.000000000000
 O    1.100179479399    0.403455647357    0.000000000000
 H    2.019189479399    0.106654647357    0.000000000000
 H    0.046860479399    2.146330647357    0.000000000000
 H    1.588845479399    2.249274647357    0.899440000000
 H    1.588845479399    2.249274647357   -0.899440000000
NA   -1.569576602038   -1.536235685209    0.000000000000
