7

 C    1.167792971637    1.887465724934    0.000000000000
 O    1.167792971637    0.452579724934    0.000000000000
 H    2.086802971637    0.155778724934    0.000000000000
 H    0.114473971637    2.195454724934    0.000000000000
 H    1.656458971637    2.298398724934    0.899440000000
 H    1.656458971637    2.298398724934   -0.899440000000
NA   -1.663766508675   -1.604668658090    0.000000000000
