7

 C    1.201599717756    1.912027763723    0.000000000000
 O    1.201599717756    0.477141763723    0.000000000000
 H    2.120609717756    0.180340763723    0.000000000000
 H    0.148280717756    2.220016763723    0.000000000000
 H    1.690265717756    2.322960763723    0.899440000000
 H    1.690265717756    2.322960763723   -0.899440000000
NA   -1.710861461994   -1.638885144530    0.000000000000
