7

 C    1.370633448349    2.034837957666    0.000000000000
 O    1.370633448349    0.599951957666    0.000000000000
 H    2.289643448349    0.303150957666    0.000000000000
 H    0.317314448349    2.342826957666    0.000000000000
 H    1.859299448349    2.445770957666    0.899440000000
 H    1.859299448349    2.445770957666   -0.899440000000
NA   -1.946336228588   -1.809967576733    0.000000000000
