7

 C    1.472053686705    2.108524074033    0.000000000000
 O    1.472053686705    0.673638074033    0.000000000000
 H    2.391063686705    0.376837074033    0.000000000000
 H    0.418734686705    2.416513074033    0.000000000000
 H    1.960719686705    2.519457074033    0.899440000000
 H    1.960719686705    2.519457074033   -0.899440000000
NA   -2.087621088544   -1.912617036054    0.000000000000
