7

 C    1.505860432824    2.133086112821    0.000000000000
 O    1.505860432824    0.698200112821    0.000000000000
 H    2.424870432824    0.401399112821    0.000000000000
 H    0.452541432824    2.441075112821    0.000000000000
 H    1.994526432824    2.544019112821    0.899440000000
 H    1.994526432824    2.544019112821   -0.899440000000
NA   -2.134716041863   -1.946833522495    0.000000000000
