7

 C    1.607280671180    2.206772229187    0.000000000000
 O    1.607280671180    0.771886229187    0.000000000000
 H    2.526290671180    0.475085229187    0.000000000000
 H    0.553961671180    2.514761229187    0.000000000000
 H    2.095946671180    2.617705229187    0.899440000000
 H    2.095946671180    2.617705229187   -0.899440000000
NA   -2.276000901820   -2.049482981816    0.000000000000
