7

 C    1.708700909536    2.280458345554    0.000000000000
 O    1.708700909536    0.845572345554    0.000000000000
 H    2.627710909536    0.548771345554    0.000000000000
 H    0.655381909536    2.588447345554    0.000000000000
 H    2.197366909536    2.691391345554    0.899440000000
 H    2.197366909536    2.691391345554   -0.899440000000
NA   -2.417285761776   -2.152132441138    0.000000000000
