7

 C    1.945348132367    2.452392617075    0.000000000000
 O    1.945348132367    1.017506617075    0.000000000000
 H    2.864358132367    0.720705617075    0.000000000000
 H    0.892029132367    2.760381617075    0.000000000000
 H    2.434014132367    2.863325617075    0.899440000000
 H    2.434014132367    2.863325617075   -0.899440000000
NA   -2.746950435007   -2.391647846222    0.000000000000
