7

 C    2.012961624605    2.501516694652    0.000000000000
 O    2.012961624605    1.066630694652    0.000000000000
 H    2.931971624605    0.769829694652    0.000000000000
 H    0.959642624605    2.809505694652    0.000000000000
 H    2.501627624605    2.912449694652    0.899440000000
 H    2.501627624605    2.912449694652   -0.899440000000
NA   -2.841140341645   -2.460080819103    0.000000000000
