7

 C    3.027164008166    3.238377858314    0.000000000000
 O    3.027164008166    1.803491858314    0.000000000000
 H    3.946174008166    1.506690858314    0.000000000000
 H    1.973845008166    3.546366858314    0.000000000000
 H    3.515830008166    3.649310858314    0.899440000000
 H    3.515830008166    3.649310858314   -0.899440000000
NA   -4.253988941209   -3.486575412319    0.000000000000
