13

 H    0.545582619342    4.219269767349    0.000000000000
 H    2.154582619342    4.519119767349    0.891490000000
 H    2.154582619342    4.519119767349   -0.891490000000
 C    1.635752619342    4.147809767349    0.000000000000
 S    1.733202619342    2.305639767349    0.000000000000
 H    3.002342619342    1.855589767349    0.000000000000
CS   -0.300457380658   -0.399690232651    0.000000000000
 S   -0.901338692579   -1.199028489576    0.000000000000
 H   -2.170477763461   -0.748987620697    0.000000000000
 C   -0.803878585910   -3.041202230055    0.000000000000
 H    0.286291900812   -3.112661379082    0.000000000000
 H   -1.322709698702   -3.412510493910   -0.891488845971
 H   -1.322709698702   -3.412510493910    0.891488845971
