13

 H    0.570783835712    4.252794351932    0.000000000000
 H    2.179783835712    4.552644351932    0.891490000000
 H    2.179783835712    4.552644351932   -0.891490000000
 C    1.660953835712    4.181334351932    0.000000000000
 S    1.758403835712    2.339164351932    0.000000000000
 H    3.027543835712    1.889114351932    0.000000000000
CS   -0.275256164288   -0.366165648068    0.000000000000
 S   -0.996313738593   -1.325371556379    0.000000000000
 H   -2.265452809475   -0.875330687499    0.000000000000
 C   -0.898853631924   -3.167545296857    0.000000000000
 H    0.191316854798   -3.239004445884    0.000000000000
 H   -1.417684744716   -3.538853560712   -0.891488845971
 H   -1.417684744716   -3.538853560712    0.891488845971
