13

 H    0.583384443897    4.269556644223    0.000000000000
 H    2.192384443897    4.569406644223    0.891490000000
 H    2.192384443897    4.569406644223   -0.891490000000
 C    1.673554443897    4.198096644223    0.000000000000
 S    1.771004443897    2.355926644223    0.000000000000
 H    3.040144443897    1.905876644223    0.000000000000
CS   -0.262655556103   -0.349403355777    0.000000000000
 S   -1.043801261600   -1.388543089780    0.000000000000
 H   -2.312940332482   -0.938502220900    0.000000000000
 C   -0.946341154931   -3.230716830258    0.000000000000
 H    0.143829331791   -3.302175979286    0.000000000000
 H   -1.465172267723   -3.602025094113   -0.891488845971
 H   -1.465172267723   -3.602025094113    0.891488845971
