13

 H    0.608585660267    4.303081228806    0.000000000000
 H    2.217585660267    4.602931228806    0.891490000000
 H    2.217585660267    4.602931228806   -0.891490000000
 C    1.698755660267    4.231621228806    0.000000000000
 S    1.796205660267    2.389451228806    0.000000000000
 H    3.065345660267    1.939401228806    0.000000000000
CS   -0.237454339733   -0.315878771194    0.000000000000
 S   -1.138776307614   -1.514886156582    0.000000000000
 H   -2.407915378496   -1.064845287703    0.000000000000
 C   -1.041316200945   -3.357059897060    0.000000000000
 H    0.048854285777   -3.428519046088    0.000000000000
 H   -1.560147313737   -3.728368160915   -0.891488845971
 H   -1.560147313737   -3.728368160915    0.891488845971
