13

 H    0.658988093007    4.370130397972    0.000000000000
 H    2.267988093007    4.669980397972    0.891490000000
 H    2.267988093007    4.669980397972   -0.891490000000
 C    1.749158093007    4.298670397972    0.000000000000
 S    1.846608093007    2.456500397972    0.000000000000
 H    3.115748093007    2.006450397972    0.000000000000
CS   -0.187051906993   -0.248829602028    0.000000000000
 S   -1.328726399642   -1.767572290186    0.000000000000
 H   -2.597865470524   -1.317531421307    0.000000000000
 C   -1.231266292973   -3.609746030665    0.000000000000
 H   -0.141095806251   -3.681205179692    0.000000000000
 H   -1.750097405765   -3.981054294520   -0.891488845971
 H   -1.750097405765   -3.981054294520    0.891488845971
