13

 H    1.679637356000    5.727876073577    0.000000000000
 H    3.288637356000    6.027726073577    0.891490000000
 H    3.288637356000    6.027726073577   -0.891490000000
 C    2.769807356000    5.656416073577    0.000000000000
 S    2.867257356000    3.814246073577    0.000000000000
 H    4.136397356000    3.364196073577    0.000000000000
CS    0.833597356000    1.108916073577    0.000000000000
 S   -5.175215763208   -6.884466495676    0.000000000000
 H   -6.444354834090   -6.434425626797    0.000000000000
 C   -5.077755656539   -8.726640236154    0.000000000000
 H   -3.987585169817   -8.798099385182    0.000000000000
 H   -5.596586769331   -9.097948500009   -0.891488845971
 H   -5.596586769331   -9.097948500009    0.891488845971
