13

 H    0.684189309378    4.403654982555    0.000000000000
 H    2.293189309378    4.703504982555    0.891490000000
 H    2.293189309378    4.703504982555   -0.891490000000
 C    1.774359309378    4.332194982555    0.000000000000
 S    1.871809309378    2.490024982555    0.000000000000
 H    3.140949309378    2.039974982555    0.000000000000
CS   -0.161850690622   -0.215305017445    0.000000000000
 S   -1.423701445656   -1.893915356989    0.000000000000
 H   -2.692840516538   -1.443874488109    0.000000000000
 C   -1.326241338987   -3.736089097467    0.000000000000
 H   -0.236070852265   -3.807548246494    0.000000000000
 H   -1.845072451779   -4.107397361322   -0.891488845971
 H   -1.845072451779   -4.107397361322    0.891488845971
