13

 H    0.747192350303    4.487466444012    0.000000000000
 H    2.356192350303    4.787316444012    0.891490000000
 H    2.356192350303    4.787316444012   -0.891490000000
 C    1.837362350303    4.416006444012    0.000000000000
 S    1.934812350303    2.573836444012    0.000000000000
 H    3.203952350303    2.123786444012    0.000000000000
CS   -0.098847649697   -0.131493555988    0.000000000000
 S   -1.661139060691   -2.209773023994    0.000000000000
 H   -2.930278131573   -1.759732155115    0.000000000000
 C   -1.563678954022   -4.051946764472    0.000000000000
 H   -0.473508467300   -4.123405913500    0.000000000000
 H   -2.082510066814   -4.423255028327   -0.891488845971
 H   -2.082510066814   -4.423255028327    0.891488845971
