13

 H    0.759792958488    4.504228736303    0.000000000000
 H    2.368792958488    4.804078736303    0.891490000000
 H    2.368792958488    4.804078736303   -0.891490000000
 C    1.849962958488    4.432768736303    0.000000000000
 S    1.947412958488    2.590598736303    0.000000000000
 H    3.216552958488    2.140548736303    0.000000000000
CS   -0.086247041512   -0.114731263697    0.000000000000
 S   -1.708626583698   -2.272944557395    0.000000000000
 H   -2.977765654580   -1.822903688516    0.000000000000
 C   -1.611166477029   -4.115118297874    0.000000000000
 H   -0.520995990307   -4.186577446901    0.000000000000
 H   -2.129997589821   -4.486426561728   -0.891488845971
 H   -2.129997589821   -4.486426561728    0.891488845971
