13

 H    0.911000256709    4.705376243800    0.000000000000
 H    2.520000256709    5.005226243800    0.891490000000
 H    2.520000256709    5.005226243800   -0.891490000000
 C    2.001170256709    4.633916243800    0.000000000000
 S    2.098620256709    2.791746243800    0.000000000000
 H    3.367760256709    2.341696243800    0.000000000000
CS    0.064960256709    0.086416243800    0.000000000000
 S   -2.278476859782   -3.031002958209    0.000000000000
 H   -3.547615930664   -2.580962089329    0.000000000000
 C   -2.181016753113   -4.873176698687    0.000000000000
 H   -1.090846266390   -4.944635847714    0.000000000000
 H   -2.699847865905   -5.244484962542   -0.891488845971
 H   -2.699847865905   -5.244484962542    0.891488845971
