13

 H    0.936201473079    4.738900828383    0.000000000000
 H    2.545201473079    5.038750828383    0.891490000000
 H    2.545201473079    5.038750828383   -0.891490000000
 C    2.026371473079    4.667440828383    0.000000000000
 S    2.123821473079    2.825270828383    0.000000000000
 H    3.392961473079    2.375220828383    0.000000000000
CS    0.090161473079    0.119940828383    0.000000000000
 S   -2.373451905796   -3.157346025011    0.000000000000
 H   -3.642590976678   -2.707305156131    0.000000000000
 C   -2.275991799127   -4.999519765489    0.000000000000
 H   -1.185821312404   -5.070978914517    0.000000000000
 H   -2.794822911919   -5.370828029344   -0.891488845971
 H   -2.794822911919   -5.370828029344    0.891488845971
