13

 H    0.948802081264    4.755663120674    0.000000000000
 H    2.557802081264    5.055513120674    0.891490000000
 H    2.557802081264    5.055513120674   -0.891490000000
 C    2.038972081264    4.684203120674    0.000000000000
 S    2.136422081264    2.842033120674    0.000000000000
 H    3.405562081264    2.391983120674    0.000000000000
CS    0.102762081264    0.136703120674    0.000000000000
 S   -2.420939428803   -3.220517558412    0.000000000000
 H   -3.690078499684   -2.770476689532    0.000000000000
 C   -2.323479322134   -5.062691298890    0.000000000000
 H   -1.233308835411   -5.134150447918    0.000000000000
 H   -2.842310434926   -5.433999562745   -0.891488845971
 H   -2.842310434926   -5.433999562745    0.891488845971
