13

 H    0.961402689450    4.772425412966    0.000000000000
 H    2.570402689450    5.072275412966    0.891490000000
 H    2.570402689450    5.072275412966   -0.891490000000
 C    2.051572689450    4.700965412966    0.000000000000
 S    2.149022689450    2.858795412966    0.000000000000
 H    3.418162689450    2.408745412966    0.000000000000
CS    0.115362689450    0.153465412966    0.000000000000
 S   -2.468426951810   -3.283689091813    0.000000000000
 H   -3.737566022691   -2.833648222934    0.000000000000
 C   -2.370966845141   -5.125862832291    0.000000000000
 H   -1.280796358418   -5.197321981319    0.000000000000
 H   -2.889797957933   -5.497171096146   -0.891488845971
 H   -2.889797957933   -5.497171096146    0.891488845971
