13

 H    0.999204514005    4.822712289840    0.000000000000
 H    2.608204514005    5.122562289840    0.891490000000
 H    2.608204514005    5.122562289840   -0.891490000000
 C    2.089374514005    4.751252289840    0.000000000000
 S    2.186824514005    2.909082289840    0.000000000000
 H    3.455964514005    2.459032289840    0.000000000000
CS    0.153164514005    0.203752289840    0.000000000000
 S   -2.610889520831   -3.473203692016    0.000000000000
 H   -3.880028591712   -3.023162823137    0.000000000000
 C   -2.513429414162   -5.315377432495    0.000000000000
 H   -1.423258927439   -5.386836581522    0.000000000000
 H   -3.032260526954   -5.686685696350   -0.891488845971
 H   -3.032260526954   -5.686685696350    0.891488845971
