13

 H    1.024405730375    4.856236874423    0.000000000000
 H    2.633405730375    5.156086874423    0.891490000000
 H    2.633405730375    5.156086874423   -0.891490000000
 C    2.114575730375    4.784776874423    0.000000000000
 S    2.212025730375    2.942606874423    0.000000000000
 H    3.481165730375    2.492556874423    0.000000000000
CS    0.178365730375    0.237276874423    0.000000000000
 S   -2.705864566845   -3.599546758818    0.000000000000
 H   -3.975003637726   -3.149505889939    0.000000000000
 C   -2.608404460176   -5.441720499297    0.000000000000
 H   -1.518233973453   -5.513179648324    0.000000000000
 H   -3.127235572968   -5.813028763152   -0.891488845971
 H   -3.127235572968   -5.813028763152    0.891488845971
