13

 H    1.049606946745    4.889761459006    0.000000000000
 H    2.658606946745    5.189611459006    0.891490000000
 H    2.658606946745    5.189611459006   -0.891490000000
 C    2.139776946745    4.818301459006    0.000000000000
 S    2.237226946745    2.976131459006    0.000000000000
 H    3.506366946745    2.526081459006    0.000000000000
CS    0.203566946745    0.270801459006    0.000000000000
 S   -2.800839612859   -3.725889825621    0.000000000000
 H   -4.069978683740   -3.275848956741    0.000000000000
 C   -2.703379506190   -5.568063566099    0.000000000000
 H   -1.613209019467   -5.639522715127    0.000000000000
 H   -3.222210618982   -5.939371829954   -0.891488845971
 H   -3.222210618982   -5.939371829954    0.891488845971
