13

 H    1.062207554930    4.906523751297    0.000000000000
 H    2.671207554930    5.206373751297    0.891490000000
 H    2.671207554930    5.206373751297   -0.891490000000
 C    2.152377554930    4.835063751297    0.000000000000
 S    2.249827554930    2.992893751297    0.000000000000
 H    3.518967554930    2.542843751297    0.000000000000
CS    0.216167554930    0.287563751297    0.000000000000
 S   -2.848327135866   -3.789061359022    0.000000000000
 H   -4.117466206747   -3.339020490142    0.000000000000
 C   -2.750867029197   -5.631235099500    0.000000000000
 H   -1.660696542474   -5.702694248528    0.000000000000
 H   -3.269698141989   -6.002543363355   -0.891488845971
 H   -3.269698141989   -6.002543363355    0.891488845971
