13

 H    1.100009379486    4.956810628171    0.000000000000
 H    2.709009379486    5.256660628171    0.891490000000
 H    2.709009379486    5.256660628171   -0.891490000000
 C    2.190179379486    4.885350628171    0.000000000000
 S    2.287629379486    3.043180628171    0.000000000000
 H    3.556769379486    2.593130628171    0.000000000000
CS    0.253969379486    0.337850628171    0.000000000000
 S   -2.990789704887   -3.978575959225    0.000000000000
 H   -4.259928775768   -3.528535090346    0.000000000000
 C   -2.893329598217   -5.820749699703    0.000000000000
 H   -1.803159111495   -5.892208848731    0.000000000000
 H   -3.412160711010   -6.192057963558   -0.891488845971
 H   -3.412160711010   -6.192057963558    0.891488845971
