13

 H    1.163012420411    5.040622089629    0.000000000000
 H    2.772012420411    5.340472089628    0.891490000000
 H    2.772012420411    5.340472089628   -0.891490000000
 C    2.253182420411    4.969162089629    0.000000000000
 S    2.350632420411    3.126992089629    0.000000000000
 H    3.619772420411    2.676942089629    0.000000000000
CS    0.316972420411    0.421662089629    0.000000000000
 S   -3.228227319922   -4.294433626231    0.000000000000
 H   -4.497366390803   -3.844392757351    0.000000000000
 C   -3.130767213252   -6.136607366709    0.000000000000
 H   -2.040596726530   -6.208066515737    0.000000000000
 H   -3.649598326045   -6.507915630564   -0.891488845971
 H   -3.649598326045   -6.507915630564    0.891488845971
