13

 H    1.188213636781    5.074146674211    0.000000000000
 H    2.797213636781    5.373996674211    0.891490000000
 H    2.797213636781    5.373996674211   -0.891490000000
 C    2.278383636781    5.002686674211    0.000000000000
 S    2.375833636781    3.160516674211    0.000000000000
 H    3.644973636781    2.710466674211    0.000000000000
CS    0.342173636781    0.455186674211    0.000000000000
 S   -3.323202365936   -4.420776693033    0.000000000000
 H   -4.592341436817   -3.970735824154    0.000000000000
 C   -3.225742259266   -6.262950433511    0.000000000000
 H   -2.135571772544   -6.334409582539    0.000000000000
 H   -3.744573372059   -6.634258697366   -0.891488845971
 H   -3.744573372059   -6.634258697366    0.891488845971
