13

 H    1.238616069522    5.141195843377    0.000000000000
 H    2.847616069522    5.441045843377    0.891490000000
 H    2.847616069522    5.441045843377   -0.891490000000
 C    2.328786069522    5.069735843377    0.000000000000
 S    2.426236069522    3.227565843377    0.000000000000
 H    3.695376069522    2.777515843377    0.000000000000
CS    0.392576069522    0.522235843377    0.000000000000
 S   -3.513152457964   -4.673462826637    0.000000000000
 H   -4.782291528845   -4.223421957758    0.000000000000
 C   -3.415692351294   -6.515636567116    0.000000000000
 H   -2.325521864572   -6.587095716143    0.000000000000
 H   -3.934523464087   -6.886944830971   -0.891488845971
 H   -3.934523464087   -6.886944830971    0.891488845971
