13

 H    1.276417894077    5.191482720251    0.000000000000
 H    2.885417894077    5.491332720251    0.891490000000
 H    2.885417894077    5.491332720251   -0.891490000000
 C    2.366587894077    5.120022720251    0.000000000000
 S    2.464037894077    3.277852720251    0.000000000000
 H    3.733177894077    2.827802720251    0.000000000000
CS    0.430377894077    0.572522720251    0.000000000000
 S   -3.655615026985   -4.862977426841    0.000000000000
 H   -4.924754097866   -4.412936557961    0.000000000000
 C   -3.558154920315   -6.705151167319    0.000000000000
 H   -2.467984433593   -6.776610316346    0.000000000000
 H   -4.076986033108   -7.076459431174   -0.891488845971
 H   -4.076986033108   -7.076459431174    0.891488845971
