13

 H    1.301619110447    5.225007304834    0.000000000000
 H    2.910619110447    5.524857304834    0.891490000000
 H    2.910619110447    5.524857304834   -0.891490000000
 C    2.391789110447    5.153547304834    0.000000000000
 S    2.489239110447    3.311377304834    0.000000000000
 H    3.758379110447    2.861327304834    0.000000000000
CS    0.455579110447    0.606047304834    0.000000000000
 S   -3.750590072999   -4.989320493643    0.000000000000
 H   -5.019729143880   -4.539279624764    0.000000000000
 C   -3.653129966329   -6.831494234121    0.000000000000
 H   -2.562959479607   -6.902953383149    0.000000000000
 H   -4.171961079122   -7.202802497976   -0.891488845971
 H   -4.171961079122   -7.202802497976    0.891488845971
