13

 H    1.326820326817    5.258531889417    0.000000000000
 H    2.935820326817    5.558381889417    0.891490000000
 H    2.935820326817    5.558381889417   -0.891490000000
 C    2.416990326817    5.187071889417    0.000000000000
 S    2.514440326817    3.344901889417    0.000000000000
 H    3.783580326817    2.894851889417    0.000000000000
CS    0.480780326817    0.639571889417    0.000000000000
 S   -3.845565119013   -5.115663560445    0.000000000000
 H   -5.114704189894   -4.665622691566    0.000000000000
 C   -3.748105012343   -6.957837300923    0.000000000000
 H   -2.657934525621   -7.029296449951    0.000000000000
 H   -4.266936125136   -7.329145564778   -0.891488845971
 H   -4.266936125136   -7.329145564778    0.891488845971
