13

 H    1.339420935002    5.275294181708    0.000000000000
 H    2.948420935002    5.575144181708    0.891490000000
 H    2.948420935002    5.575144181708   -0.891490000000
 C    2.429590935002    5.203834181708    0.000000000000
 S    2.527040935002    3.361664181708    0.000000000000
 H    3.796180935002    2.911614181708    0.000000000000
CS    0.493380935002    0.656334181708    0.000000000000
 S   -3.893052642020   -5.178835093846    0.000000000000
 H   -5.162191712901   -4.728794224967    0.000000000000
 C   -3.795592535350   -7.021008834325    0.000000000000
 H   -2.705422048628   -7.092467983352    0.000000000000
 H   -4.314423648143   -7.392317098179   -0.891488845971
 H   -4.314423648143   -7.392317098179    0.891488845971
