13

 H    1.352021543187    5.292056474000    0.000000000000
 H    2.961021543187    5.591906474000    0.891490000000
 H    2.961021543187    5.591906474000   -0.891490000000
 C    2.442191543187    5.220596474000    0.000000000000
 S    2.539641543187    3.378426474000    0.000000000000
 H    3.808781543187    2.928376474000    0.000000000000
CS    0.505981543187    0.673096474000    0.000000000000
 S   -3.940540165026   -5.242006627247    0.000000000000
 H   -5.209679235908   -4.791965758368    0.000000000000
 C   -3.843080058357   -7.084180367726    0.000000000000
 H   -2.752909571635   -7.155639516753    0.000000000000
 H   -4.361911171150   -7.455488631581   -0.891488845971
 H   -4.361911171150   -7.455488631581    0.891488845971
