13

 H    1.364622151372    5.308818766291    0.000000000000
 H    2.973622151372    5.608668766291    0.891490000000
 H    2.973622151372    5.608668766291   -0.891490000000
 C    2.454792151372    5.237358766291    0.000000000000
 S    2.552242151372    3.395188766291    0.000000000000
 H    3.821382151372    2.945138766291    0.000000000000
CS    0.518582151372    0.689858766291    0.000000000000
 S   -3.988027688033   -5.305178160648    0.000000000000
 H   -5.257166758915   -4.855137291769    0.000000000000
 C   -3.890567581364   -7.147351901127    0.000000000000
 H   -2.800397094642   -7.218811050154    0.000000000000
 H   -4.409398694157   -7.518660164982   -0.891488845971
 H   -4.409398694157   -7.518660164982    0.891488845971
