13

 H    1.377222759558    5.325581058583    0.000000000000
 H    2.986222759558    5.625431058583    0.891490000000
 H    2.986222759558    5.625431058583   -0.891490000000
 C    2.467392759558    5.254121058583    0.000000000000
 S    2.564842759558    3.411951058583    0.000000000000
 H    3.833982759558    2.961901058583    0.000000000000
CS    0.531182759558    0.706621058583    0.000000000000
 S   -4.035515211040   -5.368349694050    0.000000000000
 H   -5.304654281922   -4.918308825170    0.000000000000
 C   -3.938055104371   -7.210523434528    0.000000000000
 H   -2.847884617649   -7.281982583555    0.000000000000
 H   -4.456886217164   -7.581831698383   -0.891488845971
 H   -4.456886217164   -7.581831698383    0.891488845971
