13

 H    1.389823367743    5.342343350874    0.000000000000
 H    2.998823367743    5.642193350874    0.891490000000
 H    2.998823367743    5.642193350874   -0.891490000000
 C    2.479993367743    5.270883350874    0.000000000000
 S    2.577443367743    3.428713350874    0.000000000000
 H    3.846583367743    2.978663350874    0.000000000000
CS    0.543783367743    0.723383350874    0.000000000000
 S   -4.083002734047   -5.431521227451    0.000000000000
 H   -5.352141804929   -4.981480358571    0.000000000000
 C   -3.985542627378   -7.273694967929    0.000000000000
 H   -2.895372140656   -7.345154116956    0.000000000000
 H   -4.504373740171   -7.645003231784   -0.891488845971
 H   -4.504373740171   -7.645003231784    0.891488845971
