13

 H    1.415024584113    5.375867935457    0.000000000000
 H    3.024024584113    5.675717935457    0.891490000000
 H    3.024024584113    5.675717935457   -0.891490000000
 C    2.505194584113    5.304407935457    0.000000000000
 S    2.602644584113    3.462237935457    0.000000000000
 H    3.871784584113    3.012187935457    0.000000000000
CS    0.568984584113    0.756907935457    0.000000000000
 S   -4.177977780061   -5.557864294253    0.000000000000
 H   -5.447116850943   -5.107823425373    0.000000000000
 C   -4.080517673392   -7.400038034731    0.000000000000
 H   -2.990347186670   -7.471497183759    0.000000000000
 H   -4.599348786185   -7.771346298586   -0.891488845971
 H   -4.599348786185   -7.771346298586    0.891488845971
