13

 H    1.427625192298    5.392630227748    0.000000000000
 H    3.036625192298    5.692480227748    0.891490000000
 H    3.036625192298    5.692480227748   -0.891490000000
 C    2.517795192298    5.321170227748    0.000000000000
 S    2.615245192298    3.479000227748    0.000000000000
 H    3.884385192298    3.028950227748    0.000000000000
CS    0.581585192298    0.773670227748    0.000000000000
 S   -4.225465303068   -5.621035827654    0.000000000000
 H   -5.494604373950   -5.170994958775    0.000000000000
 C   -4.128005196399   -7.463209568132    0.000000000000
 H   -3.037834709677   -7.534668717160    0.000000000000
 H   -4.646836309192   -7.834517831987   -0.891488845971
 H   -4.646836309192   -7.834517831987    0.891488845971
