13

 H    1.440225800483    5.409392520040    0.000000000000
 H    3.049225800483    5.709242520040    0.891490000000
 H    3.049225800483    5.709242520040   -0.891490000000
 C    2.530395800483    5.337932520040    0.000000000000
 S    2.627845800483    3.495762520040    0.000000000000
 H    3.896985800483    3.045712520040    0.000000000000
CS    0.594185800483    0.790432520040    0.000000000000
 S   -4.272952826075   -5.684207361055    0.000000000000
 H   -5.542091896957   -5.234166492176    0.000000000000
 C   -4.175492719406   -7.526381101533    0.000000000000
 H   -3.085322232684   -7.597840250561    0.000000000000
 H   -4.694323832199   -7.897689365388   -0.891488845971
 H   -4.694323832199   -7.897689365388    0.891488845971
