13

 H    1.541030665964    5.543490858371    0.000000000000
 H    3.150030665964    5.843340858371    0.891490000000
 H    3.150030665964    5.843340858371   -0.891490000000
 C    2.631200665964    5.472030858371    0.000000000000
 S    2.728650665964    3.629860858371    0.000000000000
 H    3.997790665964    3.179810858371    0.000000000000
CS    0.694990665964    0.924530858371    0.000000000000
 S   -4.652853010131   -6.189579628264    0.000000000000
 H   -5.921992081013   -5.739538759385    0.000000000000
 C   -4.555392903462   -8.031753368742    0.000000000000
 H   -3.465222416740   -8.103212517770    0.000000000000
 H   -5.074224016255   -8.403061632597   -0.891488845971
 H   -5.074224016255   -8.403061632597    0.891488845971
