13

 H    1.553631274149    5.560253150663    0.000000000000
 H    3.162631274149    5.860103150663    0.891490000000
 H    3.162631274149    5.860103150663   -0.891490000000
 C    2.643801274149    5.488793150663    0.000000000000
 S    2.741251274149    3.646623150663    0.000000000000
 H    4.010391274149    3.196573150663    0.000000000000
CS    0.707591274149    0.941293150663    0.000000000000
 S   -4.700340533138   -6.252751161665    0.000000000000
 H   -5.969479604020   -5.802710292786    0.000000000000
 C   -4.602880426469   -8.094924902143    0.000000000000
 H   -3.512709939747   -8.166384051171    0.000000000000
 H   -5.121711539262   -8.466233165998   -0.891488845971
 H   -5.121711539262   -8.466233165998    0.891488845971
