13

 H    1.578832490519    5.593777735245    0.000000000000
 H    3.187832490519    5.893627735245    0.891490000000
 H    3.187832490519    5.893627735245   -0.891490000000
 C    2.669002490519    5.522317735245    0.000000000000
 S    2.766452490519    3.680147735245    0.000000000000
 H    4.035592490519    3.230097735245    0.000000000000
CS    0.732792490519    0.974817735245    0.000000000000
 S   -4.795315579152   -6.379094228467    0.000000000000
 H   -6.064454650034   -5.929053359588    0.000000000000
 C   -4.697855472483   -8.221267968946    0.000000000000
 H   -3.607684985761   -8.292727117973    0.000000000000
 H   -5.216686585276   -8.592576232801   -0.891488845971
 H   -5.216686585276   -8.592576232801    0.891488845971
