13

 H    1.591433098704    5.610540027537    0.000000000000
 H    3.200433098704    5.910390027537    0.891490000000
 H    3.200433098704    5.910390027537   -0.891490000000
 C    2.681603098704    5.539080027537    0.000000000000
 S    2.779053098704    3.696910027537    0.000000000000
 H    4.048193098704    3.246860027537    0.000000000000
CS    0.745393098704    0.991580027537    0.000000000000
 S   -4.842803102159   -6.442265761868    0.000000000000
 H   -6.111942173041   -5.992224892989    0.000000000000
 C   -4.745342995490   -8.284439502347    0.000000000000
 H   -3.655172508768   -8.355898651374    0.000000000000
 H   -5.264174108283   -8.655747766202   -0.891488845971
 H   -5.264174108283   -8.655747766202    0.891488845971
