13

 H    1.616634315074    5.644064612120    0.000000000000
 H    3.225634315074    5.943914612120    0.891490000000
 H    3.225634315074    5.943914612120   -0.891490000000
 C    2.706804315074    5.572604612120    0.000000000000
 S    2.804254315074    3.730434612120    0.000000000000
 H    4.073394315074    3.280384612120    0.000000000000
CS    0.770594315074    1.025104612120    0.000000000000
 S   -4.937778148173   -6.568608828671    0.000000000000
 H   -6.206917219055   -6.118567959791    0.000000000000
 C   -4.840318041504   -8.410782569149    0.000000000000
 H   -3.750147554782   -8.482241718176    0.000000000000
 H   -5.359149154297   -8.782090833004   -0.891488845971
 H   -5.359149154297   -8.782090833004    0.891488845971
