13

 H    1.641835531444    5.677589196702    0.000000000000
 H    3.250835531444    5.977439196702    0.891490000000
 H    3.250835531444    5.977439196702   -0.891490000000
 C    2.732005531444    5.606129196702    0.000000000000
 S    2.829455531444    3.763959196702    0.000000000000
 H    4.098595531444    3.313909196702    0.000000000000
CS    0.795795531444    1.058629196702    0.000000000000
 S   -5.032753194187   -6.694951895473    0.000000000000
 H   -6.301892265069   -6.244911026593    0.000000000000
 C   -4.935293087518   -8.537125635951    0.000000000000
 H   -3.845122600796   -8.608584784979    0.000000000000
 H   -5.454124200311   -8.908433899806   -0.891488845971
 H   -5.454124200311   -8.908433899806    0.891488845971
