13

 H    1.654436139630    5.694351488994    0.000000000000
 H    3.263436139630    5.994201488994    0.891490000000
 H    3.263436139630    5.994201488994   -0.891490000000
 C    2.744606139630    5.622891488994    0.000000000000
 S    2.842056139630    3.780721488994    0.000000000000
 H    4.111196139630    3.330671488994    0.000000000000
CS    0.808396139630    1.075391488994    0.000000000000
 S   -5.080240717194   -6.758123428874    0.000000000000
 H   -6.349379788076   -6.308082559995    0.000000000000
 C   -4.982780610525   -8.600297169352    0.000000000000
 H   -3.892610123803   -8.671756318380    0.000000000000
 H   -5.501611723318   -8.971605433207   -0.891488845971
 H   -5.501611723318   -8.971605433207    0.891488845971
