17

 N   -2.145609475594   -0.293276253552   -0.003301288027
 C   -0.935421408750    0.361929950124    0.000660335941
 N    0.297991005553   -0.236747744338    0.012698620846
 C    1.268414205609    0.653428397273    0.000826163873
 N    1.065337368196    2.015066530787   -0.006008996469
 H    1.869164493447    2.635027070542   -0.087997018891
 N    2.593868959846    0.234753675593   -0.077521139362
 H    3.248405165178    0.766556899993    0.490119637368
 H    2.672674047237   -0.765946468342    0.084062198627
 C   -0.193936374121    2.701100234318    0.006944790208
 O   -0.221516743226    3.929273319095    0.002856661780
 C   -1.266721500097    1.727406845044    0.013145988148
 N   -2.637794801866    1.913737890357    0.013070803432
 C   -3.131318296377    0.675134876312    0.002740703767
 H   -4.188816209645    0.420988254480   -0.000205940659
 H   -2.270706472125   -1.299859338784   -0.011960839058
CS    0.488160898903   -1.421518471670    0.000299616081
