17

 N   -2.167861793680   -0.154642873577   -0.001850445346
 C   -0.957673726836    0.500563330099    0.002111178622
 N    0.275738687467   -0.098114364363    0.014149463527
 C    1.246161887523    0.792061777248    0.002277006554
 N    1.043085050110    2.153699910762   -0.004558153788
 H    1.846912175361    2.773660450517   -0.086546176210
 N    2.571616641760    0.373387055568   -0.076070296681
 H    3.226152847092    0.905190279968    0.491570480049
 H    2.650421729151   -0.627313088367    0.085513041308
 C   -0.216188692207    2.839733614293    0.008395632889
 O   -0.243769061312    4.067906699070    0.004307504461
 C   -1.288973818183    1.866040225019    0.014596830829
 N   -2.660047119952    2.052371270332    0.014521646113
 C   -3.153570614463    0.813768256287    0.004191546448
 H   -4.211068527731    0.559621634455    0.001244902022
 H   -2.292958790211   -1.161225958809   -0.010509996377
CS    0.513451054154   -1.579077773529   -0.001349292429
