17

 N   -2.182696672405   -0.062220620261   -0.000883216892
 C   -0.972508605561    0.592985583415    0.003078407076
 N    0.260903808742   -0.005692111047    0.015116691981
 C    1.231327008798    0.884484030564    0.003244235008
 N    1.028250171385    2.246122164078   -0.003590925334
 H    1.832077296636    2.866082703833   -0.085578947756
 N    2.556781763035    0.465809308884   -0.075103068227
 H    3.211317968367    0.997612533284    0.492537708503
 H    2.635586850426   -0.534890835051    0.086480269762
 C   -0.231023570932    2.932155867609    0.009362861343
 O   -0.258603940037    4.160328952386    0.005274732915
 C   -1.303808696908    1.958462478335    0.015564059283
 N   -2.674881998677    2.144793523648    0.015488874567
 C   -3.168405493188    0.906190509603    0.005158774902
 H   -4.225903406456    0.652043887771    0.002212130476
 H   -2.307793668936   -1.068803705493   -0.009542767923
CS    0.530311157654   -1.684117308101   -0.002448564768
