17

 N   -2.197531551129    0.030201633056    0.000084011563
 C   -0.987343484285    0.685407836732    0.004045635531
 N    0.246068930018    0.086730142270    0.016083920436
 C    1.216492130074    0.976906283881    0.004211463463
 N    1.013415292661    2.338544417395   -0.002623696879
 H    1.817242417912    2.958504957150   -0.084611719301
 N    2.541946884311    0.558231562201   -0.074135839772
 H    3.196483089643    1.090034786601    0.493504936958
 H    2.620751971702   -0.442468581734    0.087447498217
 C   -0.245858449656    3.024578120926    0.010330089798
 O   -0.273438818761    4.252751205703    0.006241961370
 C   -1.318643575632    2.050884731652    0.016531287738
 N   -2.689716877401    2.237215776965    0.016456103022
 C   -3.183240371912    0.998612762920    0.006126003357
 H   -4.240738285180    0.744466141088    0.003179358931
 H   -2.322628547660   -0.976381452176   -0.008575539468
CS    0.547171261154   -1.789156842673   -0.003547837108
