17

 N   -2.798344139471    3.773302892373    0.039256763959
 C   -1.588156072627    4.428509096049    0.043218387927
 N   -0.354743658324    3.829831401587    0.055256672832
 C    0.615679541732    4.720007543198    0.043384215859
 N    0.412602704319    6.081645676712    0.036549055517
 H    1.216429829570    6.701606216467   -0.045438966905
 N    1.941134295969    4.301332821518   -0.034963087376
 H    2.595670501301    4.833136045918    0.532677689354
 H    2.019939383360    3.300632677583    0.126620250613
 C   -0.846671037998    6.767679380243    0.049502842194
 O   -0.874251407103    7.995852465020    0.045414713766
 C   -1.919456163974    5.793985990969    0.055704040134
 N   -3.290529465743    5.980317036282    0.055628855418
 C   -3.784052960254    4.741714022237    0.045298755753
 H   -4.841550873522    4.487567400405    0.042352111327
 H   -2.923441136002    2.766719807141    0.030597212928
CS    1.230005452921   -6.043257992852   -0.048068366872
