17

 N   -2.219783869216    0.168835013031    0.001534854244
 C   -1.009595802372    0.824041216707    0.005496478212
 N    0.223816611931    0.225363522245    0.017534763117
 C    1.194239811987    1.115539663856    0.005662306144
 N    0.991162974574    2.477177797370   -0.001172854198
 H    1.794990099825    3.097138337125   -0.083160876620
 N    2.519694566224    0.696864942176   -0.072684997091
 H    3.174230771556    1.228668166576    0.494955779639
 H    2.598499653615   -0.303835201759    0.088898340898
 C   -0.268110767743    3.163211500901    0.011780932479
 O   -0.295691136848    4.391384585678    0.007692804051
 C   -1.340895893719    2.189518111627    0.017982130419
 N   -2.711969195488    2.375849156940    0.017906945703
 C   -3.205492689999    1.137246142895    0.007576846038
 H   -4.262990603267    0.883099521063    0.004630201612
 H   -2.344880865747   -0.837748072201   -0.007124696787
CS    0.572461416405   -1.946716144532   -0.005196745618
