17

 N   -2.227201308578    0.215046139689    0.002018468471
 C   -1.017013241734    0.870252343365    0.005980092439
 N    0.216399172569    0.271574648903    0.018018377344
 C    1.186822372625    1.161750790514    0.006145920371
 N    0.983745535212    2.523388924028   -0.000689239971
 H    1.787572660463    3.143349463783   -0.082677262393
 N    2.512277126862    0.743076068834   -0.072201382864
 H    3.166813332194    1.274879293234    0.495439393866
 H    2.591082214253   -0.257624075101    0.089381955125
 C   -0.275528207105    3.209422627559    0.012264546706
 O   -0.303108576210    4.437595712336    0.008176418278
 C   -1.348313333081    2.235729238285    0.018465744646
 N   -2.719386634850    2.422060283598    0.018390559930
 C   -3.212910129361    1.183457269553    0.008060460265
 H   -4.270408042629    0.929310647721    0.005113815839
 H   -2.352298305109   -0.791536945543   -0.006641082560
CS    0.580891468155   -1.999235911818   -0.005746381788
