17

 N   -2.249453626665    0.353679519664    0.003469311152
 C   -1.039265559821    1.008885723340    0.007430935120
 N    0.194146854482    0.410208028878    0.019469220025
 C    1.164570054538    1.300384170489    0.007596763052
 N    0.961493217125    2.662022304003    0.000761602710
 H    1.765320342376    3.281982843758   -0.081226419712
 N    2.490024808775    0.881709448809   -0.070750540183
 H    3.144561014107    1.413512673209    0.496890236547
 H    2.568829896166   -0.118990695126    0.090832797806
 C   -0.297780525192    3.348056007534    0.013715389387
 O   -0.325360894297    4.576229092311    0.009627260959
 C   -1.370565651168    2.374362618260    0.019916587327
 N   -2.741638952937    2.560693663573    0.019841402611
 C   -3.235162447448    1.322090649528    0.009511302946
 H   -4.292660360716    1.067944027696    0.006564658520
 H   -2.374550623196   -0.652903565568   -0.005190239879
CS    0.606181623406   -2.156795213677   -0.007395290298
