17

 N   -2.271705944752    0.492312899638    0.004920153834
 C   -1.061517877908    1.147519103314    0.008881777802
 N    0.171894536395    0.548841408852    0.020920062707
 C    1.142317736451    1.439017550463    0.009047605734
 N    0.939240899038    2.800655683977    0.002212445392
 H    1.743068024289    3.420616223732   -0.079775577030
 N    2.467772490688    1.020342828783   -0.069299697501
 H    3.122308696020    1.552146053183    0.498341079229
 H    2.546577578079    0.019642684848    0.092283640488
 C   -0.320032843279    3.486689387508    0.015166232069
 O   -0.347613212384    4.714862472285    0.011078103641
 C   -1.392817969255    2.512995998234    0.021367430009
 N   -2.763891271024    2.699327043547    0.021292245293
 C   -3.257414765535    1.460724029502    0.010962145628
 H   -4.314912678803    1.206577407670    0.008015501202
 H   -2.396802941283   -0.514270185594   -0.003739397197
CS    0.631471778657   -2.314354515535   -0.009044198807
