17

 N   -2.293958262839    0.630946279613    0.006370996515
 C   -1.083770195995    1.286152483289    0.010332620483
 N    0.149642218308    0.687474788827    0.022370905388
 C    1.120065418364    1.577650930438    0.010498448415
 N    0.916988580951    2.939289063952    0.003663288073
 H    1.720815706202    3.559249603707   -0.078324734349
 N    2.445520172601    1.158976208758   -0.067848854820
 H    3.100056377933    1.690779433158    0.499791921910
 H    2.524325259992    0.158276064823    0.093734483169
 C   -0.342285161366    3.625322767483    0.016617074750
 O   -0.369865530471    4.853495852260    0.012528946322
 C   -1.415070287342    2.651629378209    0.022818272690
 N   -2.786143589111    2.837960423522    0.022743087974
 C   -3.279667083622    1.599357409477    0.012412988309
 H   -4.337164996890    1.345210787645    0.009466343883
 H   -2.419055259370   -0.375636805619   -0.002288554516
CS    0.656761933907   -2.471913817393   -0.010693107317
