17

 N   -2.301375702201    0.677157406271    0.006854610742
 C   -1.091187635357    1.332363609947    0.010816234710
 N    0.142224778946    0.733685915485    0.022854519615
 C    1.112647979002    1.623862057096    0.010982062642
 N    0.909571141589    2.985500190610    0.004146902300
 H    1.713398266840    3.605460730365   -0.077841120122
 N    2.438102733239    1.205187335416   -0.067365240593
 H    3.092638938571    1.736990559816    0.500275536137
 H    2.516907820630    0.204487191481    0.094218097396
 C   -0.349702600728    3.671533894141    0.017100688977
 O   -0.377282969833    4.899706978918    0.013012560549
 C   -1.422487726704    2.697840504867    0.023301886917
 N   -2.793561028473    2.884171550180    0.023226702201
 C   -3.287084522984    1.645568536135    0.012896602536
 H   -4.344582436252    1.391421914303    0.009949958110
 H   -2.426472698732   -0.329425678961   -0.001804940289
CS    0.665191985657   -2.524433584680   -0.011242743487
