17

 N   -2.308793141563    0.723368532929    0.007338224969
 C   -1.098605074719    1.378574736605    0.011299848937
 N    0.134807339584    0.779897042143    0.023338133842
 C    1.105230539640    1.670073183754    0.011465676869
 N    0.902153702227    3.031711317268    0.004630516527
 H    1.705980827478    3.651671857023   -0.077357505895
 N    2.430685293877    1.251398462074   -0.066881626366
 H    3.085221499209    1.783201686474    0.500759150364
 H    2.509490381268    0.250698318139    0.094701711623
 C   -0.357120040090    3.717745020799    0.017584303204
 O   -0.384700409195    4.945918105576    0.013496174776
 C   -1.429905166066    2.744051631525    0.023785501144
 N   -2.800978467835    2.930382676838    0.023710316428
 C   -3.294501962346    1.691779662793    0.013380216763
 H   -4.351999875614    1.437633040961    0.010433572337
 H   -2.433890138094   -0.283214552303   -0.001321326062
CS    0.673622037408   -2.576953351966   -0.011792379657
