17

 N   -2.316210580925    0.769579659588    0.007821839196
 C   -1.106022514081    1.424785863264    0.011783463164
 N    0.127389900222    0.826108168802    0.023821748069
 C    1.097813100278    1.716284310413    0.011949291096
 N    0.894736262865    3.077922443927    0.005114130754
 H    1.698563388116    3.697882983682   -0.076873891668
 N    2.423267854515    1.297609588733   -0.066398012139
 H    3.077804059847    1.829412813133    0.501242764591
 H    2.502072941906    0.296909444798    0.095185325850
 C   -0.364537479452    3.763956147458    0.018067917431
 O   -0.392117848557    4.992129232235    0.013979789003
 C   -1.437322605428    2.790262758184    0.024269115371
 N   -2.808395907197    2.976593803497    0.024193930655
 C   -3.301919401708    1.737990789452    0.013863830990
 H   -4.359417314976    1.483844167620    0.010917186564
 H   -2.441307577456   -0.237003425644   -0.000837711835
CS    0.682052089158   -2.629473119252   -0.012342015827
