17

 N   -2.323628020288    0.815790786246    0.008305453424
 C   -1.113439953444    1.470996989922    0.012267077392
 N    0.119972460859    0.872319295460    0.024305362297
 C    1.090395660915    1.762495437071    0.012432905324
 N    0.887318823502    3.124133570585    0.005597744982
 H    1.691145948753    3.744094110340   -0.076390277440
 N    2.415850415152    1.343820715391   -0.065914397911
 H    3.070386620484    1.875623939791    0.501726378819
 H    2.494655502543    0.343120571456    0.095668940078
 C   -0.371954918815    3.810167274116    0.018551531659
 O   -0.399535287920    5.038340358893    0.014463403231
 C   -1.444740044791    2.836473884842    0.024752729599
 N   -2.815813346560    3.022804930155    0.024677544883
 C   -3.309336841071    1.784201916110    0.014347445218
 H   -4.366834754339    1.530055294278    0.011400800792
 H   -2.448725016819   -0.190792298986   -0.000354097607
CS    0.690482140908   -2.681992886538   -0.012891651997
