17

 N   -2.382967535185    1.185479799512    0.012174367240
 C   -1.172779468341    1.840686003188    0.016135991208
 N    0.060632945962    1.242008308726    0.028174276113
 C    1.031056146018    2.132184450337    0.016301819140
 N    0.827979308605    3.493822583851    0.009466658798
 H    1.631806433856    4.113783123606   -0.072521363624
 N    2.356510900255    1.713509728657   -0.062045484095
 H    3.011047105587    2.245312953057    0.505595292635
 H    2.435315987646    0.712809584722    0.099537853894
 C   -0.431294433712    4.179856287382    0.022420445475
 O   -0.458874802817    5.408029372159    0.018332317047
 C   -1.504079559688    3.206162898108    0.028621643415
 N   -2.875152861457    3.392493943421    0.028546458699
 C   -3.368676355968    2.153890929376    0.018216359034
 H   -4.426174269236    1.899744307544    0.015269714608
 H   -2.508064531716    0.178896714280    0.003514816209
CS    0.757922554910   -3.102151024827   -0.017288741356
