17

 N   -2.390384974548    1.231690926170    0.012657981468
 C   -1.180196907704    1.886897129846    0.016619605436
 N    0.053215506599    1.288219435384    0.028657890341
 C    1.023638706655    2.178395576995    0.016785433368
 N    0.820561869242    3.540033710509    0.009950273026
 H    1.624388994493    4.159994250264   -0.072037749396
 N    2.349093460892    1.759720855315   -0.061561869867
 H    3.003629666224    2.291524079715    0.506078906863
 H    2.427898548283    0.759020711380    0.100021468122
 C   -0.438711873075    4.226067414040    0.022904059703
 O   -0.466292242180    5.454240498817    0.018815931275
 C   -1.511496999051    3.252374024766    0.029105257643
 N   -2.882570300820    3.438705070079    0.029030072927
 C   -3.376093795331    2.200102056034    0.018699973262
 H   -4.433591708599    1.945955434202    0.015753328836
 H   -2.515481971079    0.225107840938    0.003998430437
CS    0.766352606660   -3.154670792113   -0.017838377526
