17

 N   -2.397802413910    1.277902052828    0.013141595695
 C   -1.187614347066    1.933108256504    0.017103219663
 N    0.045798067237    1.334430562042    0.029141504568
 C    1.016221267293    2.224606703653    0.017269047595
 N    0.813144429880    3.586244837167    0.010433887253
 H    1.616971555131    4.206205376922   -0.071554135169
 N    2.341676021530    1.805931981973   -0.061078255640
 H    2.996212226862    2.337735206373    0.506562521090
 H    2.420481108921    0.805231838038    0.100505082349
 C   -0.446129312437    4.272278540698    0.023387673930
 O   -0.473709681542    5.500451625475    0.019299545502
 C   -1.518914438413    3.298585151424    0.029588871870
 N   -2.889987740182    3.484916196737    0.029513687154
 C   -3.383511234693    2.246313182692    0.019183587489
 H   -4.441009147961    1.992166560860    0.016236943063
 H   -2.522899410441    0.271318967596    0.004482044664
CS    0.774782658410   -3.207190559400   -0.018388013696
