17

 N   -2.405219853272    1.324113179486    0.013625209922
 C   -1.195031786428    1.979319383162    0.017586833890
 N    0.038380627875    1.380641688700    0.029625118795
 C    1.008803827931    2.270817830311    0.017752661822
 N    0.805726990518    3.632455963825    0.010917501480
 H    1.609554115769    4.252416503580   -0.071070520942
 N    2.334258582168    1.852143108631   -0.060594641413
 H    2.988794787500    2.383946333031    0.507046135317
 H    2.413063669559    0.851442964696    0.100988696576
 C   -0.453546751799    4.318489667356    0.023871288157
 O   -0.481127120904    5.546662752133    0.019783159729
 C   -1.526331877775    3.344796278082    0.030072486097
 N   -2.897405179544    3.531127323395    0.029997301381
 C   -3.390928674055    2.292524309350    0.019667201716
 H   -4.448426587323    2.038377687518    0.016720557290
 H   -2.530316849803    0.317530094254    0.004965658891
CS    0.783212710160   -3.259710326686   -0.018937649866
