17

 N   -2.449724489446    1.601379939436    0.016526895285
 C   -1.239536422602    2.256586143112    0.020488519253
 N   -0.006124008299    1.657908448650    0.032526804158
 C    0.964299191757    2.548084590261    0.020654347185
 N    0.761222354344    3.909722723775    0.013819186843
 H    1.565049479595    4.529683263530   -0.068168835579
 N    2.289753945994    2.129409868581   -0.057692956050
 H    2.944290151326    2.661213092981    0.509947820680
 H    2.368559033385    1.128709724646    0.103890381939
 C   -0.498051387973    4.595756427306    0.026772973520
 O   -0.525631757078    5.823929512083    0.022684845092
 C   -1.570836513949    3.622063038032    0.032974171460
 N   -2.941909815718    3.808394083345    0.032898986744
 C   -3.435433310229    2.569791069300    0.022568887079
 H   -4.492931223497    2.315644447468    0.019622242653
 H   -2.574821485977    0.594796854204    0.007867344254
CS    0.833793020662   -3.574828930403   -0.022235466886
