17

 N   -2.457141928808    1.647591066094    0.017010509512
 C   -1.246953861964    2.302797269770    0.020972133480
 N   -0.013541447661    1.704119575308    0.033010418385
 C    0.956881752395    2.594295716919    0.021137961412
 N    0.753804914982    3.955933850433    0.014302801070
 H    1.557632040233    4.575894390188   -0.067685221352
 N    2.282336506632    2.175620995239   -0.057209341823
 H    2.936872711964    2.707424219639    0.510431434907
 H    2.361141594023    1.174920851304    0.104373996166
 C   -0.505468827335    4.641967553964    0.027256587747
 O   -0.533049196440    5.870140638741    0.023168459319
 C   -1.578253953311    3.668274164690    0.033457785687
 N   -2.949327255080    3.854605210003    0.033382600971
 C   -3.442850749591    2.616002195958    0.023052501306
 H   -4.500348662859    2.361855574126    0.020105856880
 H   -2.582238925339    0.641007980862    0.008350958481
CS    0.842223072412   -3.627348697689   -0.022785103056
