17

 N   -2.494229125619    1.878646699385    0.019428580647
 C   -1.284041058775    2.533852903061    0.023390204615
 N   -0.050628644472    1.935175208599    0.035428489520
 C    0.919794555584    2.825351350210    0.023556032547
 N    0.716717718171    4.186989483724    0.016720872205
 H    1.520544843422    4.806950023479   -0.065267150217
 N    2.245249309821    2.406676628530   -0.054791270688
 H    2.899785515153    2.938479852930    0.512849506042
 H    2.324054397212    1.405976484595    0.106792067301
 C   -0.542556024146    4.873023187255    0.029674658882
 O   -0.570136393251    6.101196272032    0.025586530454
 C   -1.615341150122    3.899329797981    0.035875856822
 N   -2.986414451891    4.085660843294    0.035800672106
 C   -3.479937946402    2.847057829249    0.025470572441
 H   -4.537435859670    2.592911207417    0.022523928015
 H   -2.619326122150    0.872063614153    0.010769029616
CS    0.884373331163   -3.889947534119   -0.025533283905
