17

 N   -2.509064004344    1.971068952702    0.020395809101
 C   -1.298875937500    2.626275156378    0.024357433069
 N   -0.065463523197    2.027597461916    0.036395717974
 C    0.904959676859    2.917773603527    0.024523261001
 N    0.701882839446    4.279411737041    0.017688100659
 H    1.505709964697    4.899372276796   -0.064299921763
 N    2.230414431096    2.499098881847   -0.053824042234
 H    2.884950636428    3.030902106247    0.513816734496
 H    2.309219518487    1.498398737912    0.107759295755
 C   -0.557390902871    4.965445440572    0.030641887336
 O   -0.584971271976    6.193618525349    0.026553758908
 C   -1.630176028847    3.991752051298    0.036843085276
 N   -3.001249330616    4.178083096611    0.036767900560
 C   -3.494772825127    2.939480082566    0.026437800895
 H   -4.552270738395    2.685333460734    0.023491156469
 H   -2.634161000875    0.964485867470    0.011736258070
CS    0.901233434663   -3.994987068692   -0.026632556245
