17

 N   -2.546151201155    2.202124585993    0.022813880237
 C   -1.335963134311    2.857330789669    0.026775504205
 N   -0.102550720008    2.258653095207    0.038813789110
 C    0.867872480048    3.148829236818    0.026941332137
 N    0.664795642635    4.510467370332    0.020106171795
 H    1.468622767886    5.130427910087   -0.061881850627
 N    2.193327234285    2.730154515138   -0.051405971098
 H    2.847863439617    3.261957739538    0.516234805632
 H    2.272132321676    1.729454371203    0.110177366891
 C   -0.594478099682    5.196501073863    0.033059958472
 O   -0.622058468787    6.424674158640    0.028971830044
 C   -1.667263225658    4.222807684589    0.039261156412
 N   -3.038336527427    4.409138729902    0.039185971696
 C   -3.531860021938    3.170535715857    0.028855872031
 H   -4.589357935206    2.916389094025    0.025909227605
 H   -2.671248197686    1.195541500761    0.014154329206
CS    0.943383693414   -4.257585905122   -0.029380737095
