17

 N   -2.575820958604    2.386969092626    0.024748337145
 C   -1.365632891760    3.042175296302    0.028709961113
 N   -0.132220477457    2.443497601840    0.040748246018
 C    0.838202722599    3.333673743451    0.028875789045
 N    0.635125885186    4.695311876965    0.022040628703
 H    1.438953010437    5.315272416720   -0.059947393719
 N    2.163657476836    2.914999021771   -0.049471514190
 H    2.818193682168    3.446802246171    0.518169262540
 H    2.242462564227    1.914298877836    0.112111823799
 C   -0.624147857131    5.381345580496    0.034994415380
 O   -0.651728226236    6.609518665273    0.030906286952
 C   -1.696932983107    4.407652191222    0.041195613320
 N   -3.068006284876    4.593983236535    0.041120428604
 C   -3.561529779387    3.355380222490    0.030790328939
 H   -4.619027692655    3.101233600658    0.027843684513
 H   -2.700917955135    1.380386007394    0.016088786114
CS    0.977103900415   -4.467664974267   -0.031579281774
