17

 N   -2.605490716053    2.571813599259    0.026682794054
 C   -1.395302649209    3.227019802935    0.030644418022
 N   -0.161890234906    2.628342108473    0.042682702927
 C    0.808532965150    3.518518250084    0.030810245954
 N    0.605456127737    4.880156383598    0.023975085612
 H    1.409283252988    5.500116923353   -0.058012936810
 N    2.133987719387    3.099843528404   -0.047537057281
 H    2.788523924719    3.631646752804    0.520103719449
 H    2.212792806778    2.099143384469    0.114046280708
 C   -0.653817614580    5.566190087129    0.036928872289
 O   -0.681397983685    6.794363171906    0.032840743861
 C   -1.726602740556    4.592496697855    0.043130070229
 N   -3.097676042325    4.778827743168    0.043054885513
 C   -3.591199536836    3.540224729123    0.032724785848
 H   -4.648697450104    3.286078107291    0.029778141422
 H   -2.730587712584    1.565230514027    0.018023243023
CS    1.010824107416   -4.677744043412   -0.033777826454
