17

 N   -2.642577912864    2.802869232550    0.029100865190
 C   -1.432389846020    3.458075436226    0.033062489158
 N   -0.198977431717    2.859397741764    0.045100774063
 C    0.771445768339    3.749573883375    0.033228317090
 N    0.568368930926    5.111212016889    0.026393156748
 H    1.372196056177    5.731172556644   -0.055594865674
 N    2.096900522576    3.330899161695   -0.045118986145
 H    2.751436727908    3.862702386095    0.522521790585
 H    2.175705609967    2.330199017760    0.116464351844
 C   -0.690904811391    5.797245720420    0.039346943425
 O   -0.718485180496    7.025418805197    0.035258814997
 C   -1.763689937367    4.823552331146    0.045548141365
 N   -3.134763239136    5.009883376459    0.045472956649
 C   -3.628286733647    3.771280362414    0.035142856984
 H   -4.685784646915    3.517133740582    0.032196212558
 H   -2.767674909395    1.796286147318    0.020441314159
CS    1.052974366167   -4.940342879842   -0.036526007304
