17

 N   -2.649995352226    2.849080359208    0.029584479417
 C   -1.439807285382    3.504286562884    0.033546103385
 N   -0.206394871079    2.905608868422    0.045584388290
 C    0.764028328977    3.795785010033    0.033711931317
 N    0.560951491564    5.157423143547    0.026876770975
 H    1.364778616815    5.777383683302   -0.055111251447
 N    2.089483083214    3.377110288353   -0.044635371918
 H    2.744019288546    3.908913512753    0.523005404812
 H    2.168288170605    2.376410144418    0.116947966071
 C   -0.698322250753    5.843456847078    0.039830557652
 O   -0.725902619858    7.071629931855    0.035742429224
 C   -1.771107376729    4.869763457804    0.046031755592
 N   -3.142180678498    5.056094503117    0.045956570876
 C   -3.635704173009    3.817491489072    0.035626471211
 H   -4.693202086277    3.563344867240    0.032679826785
 H   -2.775092348757    1.842497273976    0.020924928386
CS    1.061404417917   -4.992862647129   -0.037075643474
