17

 N   -2.657412791589    2.895291485867    0.030068093644
 C   -1.447224724745    3.550497689543    0.034029717612
 N   -0.213812310442    2.951819995081    0.046068002517
 C    0.756610889614    3.841996136692    0.034195545544
 N    0.553534052201    5.203634270206    0.027360385202
 H    1.357361177452    5.823594809961   -0.054627637220
 N    2.082065643851    3.423321415012   -0.044151757691
 H    2.736601849183    3.955124639412    0.523489019039
 H    2.160870731242    2.422621271077    0.117431580298
 C   -0.705739690116    5.889667973737    0.040314171879
 O   -0.733320059221    7.117841058514    0.036226043451
 C   -1.778524816092    4.915974584463    0.046515369819
 N   -3.149598117861    5.102305629776    0.046440185103
 C   -3.643121612372    3.863702615731    0.036110085438
 H   -4.700619525640    3.609555993899    0.033163441012
 H   -2.782509788120    1.888708400635    0.021408542613
CS    1.069834469667   -5.045382414415   -0.037625279644
