17

 N   -2.664830230951    2.941502612525    0.030551707871
 C   -1.454642164107    3.596708816201    0.034513331839
 N   -0.221229749804    2.998031121739    0.046551616744
 C    0.749193450252    3.888207263350    0.034679159771
 N    0.546116612839    5.249845396864    0.027843999429
 H    1.349943738090    5.869805936619   -0.054144022993
 N    2.074648204489    3.469532541670   -0.043668143464
 H    2.729184409821    4.001335766070    0.523972633266
 H    2.153453291880    2.468832397735    0.117915194525
 C   -0.713157129478    5.935879100395    0.040797786106
 O   -0.740737498583    7.164052185172    0.036709657678
 C   -1.785942255454    4.962185711121    0.046998984046
 N   -3.157015557223    5.148516756434    0.046923799330
 C   -3.650539051734    3.909913742389    0.036593699665
 H   -4.708036965002    3.655767120557    0.033647055239
 H   -2.789927227482    1.934919527293    0.021892156840
CS    1.078264521418   -5.097902181701   -0.038174915814
