17

 N   -2.687082549038    3.080135992499    0.032002550552
 C   -1.476894482194    3.735342196175    0.035964174520
 N   -0.243482067891    3.136664501713    0.048002459425
 C    0.726941132165    4.026840643324    0.036130002452
 N    0.523864294752    5.388478776838    0.029294842110
 H    1.327691420003    6.008439316593   -0.052693180312
 N    2.052395886402    3.608165921644   -0.042217300783
 H    2.706932091734    4.139969146044    0.525423475947
 H    2.131200973793    2.607465777709    0.119366037206
 C   -0.735409447565    6.074512480369    0.042248628787
 O   -0.762989816670    7.302685565146    0.038160500359
 C   -1.808194573541    5.100819091095    0.048449826727
 N   -3.179267875310    5.287150136408    0.048374642011
 C   -3.672791369821    4.048547122363    0.038044542346
 H   -4.730289283089    3.794400500531    0.035097897920
 H   -2.812179545569    2.073552907267    0.023342999521
CS    1.103554676668   -5.255461483559   -0.039823824323
