17

 N   -2.701917427762    3.172558245816    0.032969779006
 C   -1.491729360918    3.827764449492    0.036931402974
 N   -0.258316946615    3.229086755030    0.048969687879
 C    0.712106253441    4.119262896641    0.037097230906
 N    0.509029416028    5.480901030155    0.030262070564
 H    1.312856541279    6.100861569910   -0.051725951858
 N    2.037561007678    3.700588174961   -0.041250072329
 H    2.692097213010    4.232391399361    0.526390704401
 H    2.116366095069    2.699888031026    0.120333265660
 C   -0.750244326289    6.166934733686    0.043215857241
 O   -0.777824695394    7.395107818463    0.039127728813
 C   -1.823029452265    5.193241344412    0.049417055181
 N   -3.194102754034    5.379572389725    0.049341870465
 C   -3.687626248545    4.140969375680    0.039011770800
 H   -4.745124161813    3.886822753848    0.036065126374
 H   -2.827014424293    2.165975160584    0.024310227975
CS    1.120414780169   -5.360501018132   -0.040923096663
