17

 N   -2.724169745849    3.311191625791    0.034420621688
 C   -1.513981679005    3.966397829467    0.038382245656
 N   -0.280569264702    3.367720135005    0.050420530561
 C    0.689853935354    4.257896276616    0.038548073588
 N    0.486777097941    5.619534410130    0.031712913246
 H    1.290604223192    6.239494949885   -0.050275109176
 N    2.015308689591    3.839221554936   -0.039799229647
 H    2.669844894923    4.371024779336    0.527841547083
 H    2.094113776982    2.838521411001    0.121784108342
 C   -0.772496644376    6.305568113661    0.044666699923
 O   -0.800077013481    7.533741198438    0.040578571495
 C   -1.845281770352    5.331874724387    0.050867897863
 N   -3.216355072121    5.518205769700    0.050792713147
 C   -3.709878566632    4.279602755655    0.040462613482
 H   -4.767376479900    4.025456133823    0.037515969056
 H   -2.849266742380    2.304608540559    0.025761070657
CS    1.145704935419   -5.518060319990   -0.042572005173
