17

 N   -2.731587185211    3.357402752449    0.034904235915
 C   -1.521399118367    4.012608956125    0.038865859883
 N   -0.287986704064    3.413931261663    0.050904144788
 C    0.682436495992    4.304107403274    0.039031687815
 N    0.479359658579    5.665745536788    0.032196527473
 H    1.283186783830    6.285706076543   -0.049791494949
 N    2.007891250229    3.885432681594   -0.039315615420
 H    2.662427455561    4.417235905994    0.528325161310
 H    2.086696337620    2.884732537659    0.122267722569
 C   -0.779914083738    6.351779240319    0.045150314150
 O   -0.807494452843    7.579952325096    0.041062185722
 C   -1.852699209714    5.378085851045    0.051351512090
 N   -3.223772511483    5.564416896358    0.051276327374
 C   -3.717296005994    4.325813882313    0.040946227709
 H   -4.774793919262    4.071667260481    0.037999583283
 H   -2.856684181742    2.350819667217    0.026244684884
CS    1.154134987170   -5.570580087276   -0.043121641343
