17

 N   -2.746422063936    3.449825005765    0.035871464369
 C   -1.536233997092    4.105031209441    0.039833088337
 N   -0.302821582789    3.506353514979    0.051871373242
 C    0.667601617267    4.396529656590    0.039998916269
 N    0.464524779854    5.758167790104    0.033163755927
 H    1.268351905105    6.378128329859   -0.048824266495
 N    1.993056371504    3.977854934910   -0.038348386966
 H    2.647592576836    4.509658159310    0.529292389764
 H    2.071861458895    2.977154790975    0.123234951023
 C   -0.794748962463    6.444201493635    0.046117542604
 O   -0.822329331568    7.672374578412    0.042029414176
 C   -1.867534088439    5.470508104361    0.052318740544
 N   -3.238607390208    5.656839149674    0.052243555828
 C   -3.732130884719    4.418236135629    0.041913456163
 H   -4.789628797987    4.164089513797    0.038966811737
 H   -2.871519060467    2.443241920533    0.027211913338
CS    1.170995090670   -5.675619621849   -0.044220913683
