17

 N   -2.761256942660    3.542247259082    0.036838692823
 C   -1.551068875816    4.197453462758    0.040800316791
 N   -0.317656461513    3.598775768296    0.052838601696
 C    0.652766738543    4.488951909907    0.040966144723
 N    0.449689901130    5.850590043421    0.034130984381
 H    1.253517026381    6.470550583176   -0.047857038041
 N    1.978221492780    4.070277188227   -0.037381158512
 H    2.632757698112    4.602080412627    0.530259618218
 H    2.057026580171    3.069577044292    0.124202179477
 C   -0.809583841187    6.536623746952    0.047084771058
 O   -0.837164210292    7.764796831729    0.042996642630
 C   -1.882368967163    5.562930357678    0.053285968998
 N   -3.253442268932    5.749261402991    0.053210784282
 C   -3.746965763443    4.510658388946    0.042880684617
 H   -4.804463676711    4.256511767114    0.039934040191
 H   -2.886353939191    2.535664173850    0.028179141792
CS    1.187855194170   -5.780659156421   -0.045320186023
