17

 N   -2.768674382022    3.588458385740    0.037322307050
 C   -1.558486315178    4.243664589416    0.041283931018
 N   -0.325073900875    3.644986894954    0.053322215923
 C    0.645349299181    4.535163036565    0.041449758950
 N    0.442272461768    5.896801170079    0.034614598608
 H    1.246099587019    6.516761709834   -0.047373423814
 N    1.970804053418    4.116488314885   -0.036897544285
 H    2.625340258750    4.648291539285    0.530743232445
 H    2.049609140809    3.115788170950    0.124685793704
 C   -0.817001280549    6.582834873610    0.047568385285
 O   -0.844581649654    7.811007958387    0.043480256857
 C   -1.889786406525    5.609141484336    0.053769583225
 N   -3.260859708294    5.795472529649    0.053694398509
 C   -3.754383202805    4.556869515604    0.043364298844
 H   -4.811881116073    4.302722893772    0.040417654418
 H   -2.893771378553    2.581875300508    0.028662756019
CS    1.196285245921   -5.833178923707   -0.045869822193
