17

 N   -2.776091821385    3.634669512398    0.037805921278
 C   -1.565903754541    4.289875716074    0.041767545246
 N   -0.332491340238    3.691198021612    0.053805830151
 C    0.637931859818    4.581374163223    0.041933373178
 N    0.434855022405    5.943012296737    0.035098212836
 H    1.238682147656    6.562972836492   -0.046889809586
 N    1.963386614055    4.162699441543   -0.036413930057
 H    2.617922819387    4.694502665943    0.531226846673
 H    2.042191701446    3.161999297608    0.125169407932
 C   -0.824418719912    6.629046000268    0.048051999513
 O   -0.851999089017    7.857219085045    0.043963871085
 C   -1.897203845888    5.655352610994    0.054253197453
 N   -3.268277147657    5.841683656307    0.054178012737
 C   -3.761800642168    4.603080642262    0.043847913072
 H   -4.819298555436    4.348934020430    0.040901268646
 H   -2.901188817916    2.628086427166    0.029146370247
CS    1.204715297671   -5.885698690993   -0.046419458362
