17

 N   -2.783509260747    3.680880639057    0.038289535505
 C   -1.573321193903    4.336086842733    0.042251159473
 N   -0.339908779600    3.737409148271    0.054289444378
 C    0.630514420456    4.627585289882    0.042416987405
 N    0.427437583043    5.989223423396    0.035581827063
 H    1.231264708294    6.609183963151   -0.046406195359
 N    1.955969174693    4.208910568202   -0.035930315830
 H    2.610505380025    4.740713792602    0.531710460900
 H    2.034774262084    3.208210424267    0.125653022159
 C   -0.831836159274    6.675257126927    0.048535613740
 O   -0.859416528379    7.903430211704    0.044447485312
 C   -1.904621285250    5.701563737653    0.054736811680
 N   -3.275694587019    5.887894782966    0.054661626964
 C   -3.769218081530    4.649291768921    0.044331527299
 H   -4.826715994798    4.395145147089    0.041384882873
 H   -2.908606257278    2.674297553825    0.029629984474
CS    1.213145349421   -5.938218458279   -0.046969094532
