17

 N   -2.790926700109    3.727091765715    0.038773149732
 C   -1.580738633265    4.382297969391    0.042734773700
 N   -0.347326218962    3.783620274929    0.054773058605
 C    0.623096981094    4.673796416540    0.042900601632
 N    0.420020143681    6.035434550054    0.036065441290
 H    1.223847268932    6.655395089809   -0.045922581132
 N    1.948551735331    4.255121694860   -0.035446701603
 H    2.603087940663    4.786924919260    0.532194075127
 H    2.027356822722    3.254421550925    0.126136636386
 C   -0.839253598636    6.721468253585    0.049019227967
 O   -0.866833967741    7.949641338362    0.044931099539
 C   -1.912038724612    5.747774864311    0.055220425907
 N   -3.283112026381    5.934105909624    0.055145241191
 C   -3.776635520892    4.695502895579    0.044815141526
 H   -4.834133434160    4.441356273747    0.041868497100
 H   -2.916023696640    2.720508680483    0.030113598701
CS    1.221575401171   -5.990738225565   -0.047518730702
