13

 C    0.835514008608    2.062821508341    0.709833286241
 H    0.368894008608    3.054988508341    0.709833286241
 H    1.472663008608    1.958404508341    1.602339286241
 H    1.472663008608    1.958404508341   -0.182672713759
 C   -0.262660991392    1.011736508341    0.709833286241
 O   -1.468823991392    1.289790508341    0.709833286241
 N    0.168268008608   -0.288412491659    0.709833286241
 H    1.160445008608   -0.482313491659    0.709833286241
 C   -0.790066991392   -1.386940491659    0.709833286241
 H   -1.434131991392   -1.338461491659    1.600541286241
 H   -1.434131991392   -1.338461491659   -0.180874713759
 H   -0.236840991392   -2.335365491659    0.709833286241
CS    0.168268008608   -0.288412491659   -0.390166713759
