13

 C    0.835514008608    2.062821508341    6.453029874915
 H    0.368894008608    3.054988508341    6.453029874915
 H    1.472663008608    1.958404508341    7.345535874915
 H    1.472663008608    1.958404508341    5.560523874915
 C   -0.262660991392    1.011736508341    6.453029874915
 O   -1.468823991392    1.289790508341    6.453029874915
 N    0.168268008608   -0.288412491659    6.453029874915
 H    1.160445008608   -0.482313491659    6.453029874915
 C   -0.790066991392   -1.386940491659    6.453029874915
 H   -1.434131991392   -1.338461491659    7.343737874915
 H   -1.434131991392   -1.338461491659    5.562321874915
 H   -0.236840991392   -2.335365491659    6.453029874915
CS    0.168268008608   -0.288412491659   -3.546970125085
