13

 C    0.835514008608    2.062821508341    2.452151352468
 H    0.368894008608    3.054988508341    2.452151352468
 H    1.472663008608    1.958404508341    3.344657352468
 H    1.472663008608    1.958404508341    1.559645352468
 C   -0.262660991392    1.011736508341    2.452151352468
 O   -1.468823991392    1.289790508341    2.452151352468
 N    0.168268008608   -0.288412491659    2.452151352468
 H    1.160445008608   -0.482313491659    2.452151352468
 C   -0.790066991392   -1.386940491659    2.452151352468
 H   -1.434131991392   -1.338461491659    3.342859352468
 H   -1.434131991392   -1.338461491659    1.561443352468
 H   -0.236840991392   -2.335365491659    2.452151352468
CS    0.168268008608   -0.288412491659   -1.347848647532
