13

 C    0.835514008608    2.062821508341    3.032924041210
 H    0.368894008608    3.054988508341    3.032924041210
 H    1.472663008608    1.958404508341    3.925430041210
 H    1.472663008608    1.958404508341    2.140418041210
 C   -0.262660991392    1.011736508341    3.032924041210
 O   -1.468823991392    1.289790508341    3.032924041210
 N    0.168268008608   -0.288412491659    3.032924041210
 H    1.160445008608   -0.482313491659    3.032924041210
 C   -0.790066991392   -1.386940491659    3.032924041210
 H   -1.434131991392   -1.338461491659    3.923632041210
 H   -1.434131991392   -1.338461491659    2.142216041210
 H   -0.236840991392   -2.335365491659    3.032924041210
CS    0.168268008608   -0.288412491659   -1.667075958790
