13

 C    0.835514008608    2.062821508341    3.871817924949
 H    0.368894008608    3.054988508341    3.871817924949
 H    1.472663008608    1.958404508341    4.764323924949
 H    1.472663008608    1.958404508341    2.979311924949
 C   -0.262660991392    1.011736508341    3.871817924949
 O   -1.468823991392    1.289790508341    3.871817924949
 N    0.168268008608   -0.288412491659    3.871817924949
 H    1.160445008608   -0.482313491659    3.871817924949
 C   -0.790066991392   -1.386940491659    3.871817924949
 H   -1.434131991392   -1.338461491659    4.762525924949
 H   -1.434131991392   -1.338461491659    2.981109924949
 H   -0.236840991392   -2.335365491659    3.871817924949
CS    0.168268008608   -0.288412491659   -2.128182075051
