13

 C    0.835514008608    2.062821508341    5.485075393678
 H    0.368894008608    3.054988508341    5.485075393678
 H    1.472663008608    1.958404508341    6.377581393678
 H    1.472663008608    1.958404508341    4.592569393678
 C   -0.262660991392    1.011736508341    5.485075393678
 O   -1.468823991392    1.289790508341    5.485075393678
 N    0.168268008608   -0.288412491659    5.485075393678
 H    1.160445008608   -0.482313491659    5.485075393678
 C   -0.790066991392   -1.386940491659    5.485075393678
 H   -1.434131991392   -1.338461491659    6.375783393678
 H   -1.434131991392   -1.338461491659    4.594367393678
 H   -0.236840991392   -2.335365491659    5.485075393678
CS    0.168268008608   -0.288412491659   -3.014924606322
