13

 C    1.437667556477    1.818531773632    0.550399151366
 H    1.472187556477    2.919383773632    0.550399151366
 H    1.962250556477    1.449386773632    1.444018151366
 H    1.962250556477    1.449386773632   -0.343219848634
 C   -0.005112443523    1.341480773632    0.550399151366
 H   -0.544286443523    1.712633773632   -0.344366848634
 H   -0.544286443523    1.712633773632    1.445165151366
 O   -0.004547443523   -0.087026226368    0.550399151366
 C   -1.334134443523   -0.597433226368    0.550399151366
 H   -1.887517443523   -0.266654226368   -0.348733848634
 H   -1.887517443523   -0.266654226368    1.449532151366
 H   -1.261051443523   -1.692908226368    0.550399151366
RB   -0.004412168466   -0.429046342941   -0.389293469420
