13

 C    1.437659633112    1.838564662872    0.605439066503
 H    1.472179633112    2.939416662872    0.605439066503
 H    1.962242633112    1.469419662872    1.499058066503
 H    1.962242633112    1.469419662872   -0.288179933497
 C   -0.005120366888    1.361513662872    0.605439066503
 H   -0.544294366888    1.732666662872   -0.289326933497
 H   -0.544294366888    1.732666662872    1.500205066503
 O   -0.004555366888   -0.066993337128    0.605439066503
 C   -1.334142366888   -0.577400337128    0.605439066503
 H   -1.887525366888   -0.246621337128   -0.293693933497
 H   -1.887525366888   -0.246621337128    1.504572066503
 H   -1.261059366888   -1.672875337128    0.605439066503
RB   -0.004406564326   -0.443215465359   -0.428222816362
