13

 C    1.437612092922    1.958761998308    0.935678557323
 H    1.472132092922    3.059613998308    0.935678557323
 H    1.962195092922    1.589616998308    1.829297557323
 H    1.962195092922    1.589616998308    0.042059557323
 C   -0.005167907078    1.481710998308    0.935678557323
 H   -0.544341907078    1.852863998308    0.040912557323
 H   -0.544341907078    1.852863998308    1.830444557323
 O   -0.004602907078    0.053203998308    0.935678557323
 C   -1.334189907078   -0.457203001692    0.935678557323
 H   -1.887572907078   -0.126424001692    0.036545557323
 H   -1.887572907078   -0.126424001692    1.834811557323
 H   -1.261106907078   -1.552678001692    0.935678557323
RB   -0.004372939482   -0.528230199868   -0.661798898013
