13

 C    1.437604169557    1.978794887547    0.990718472459
 H    1.472124169557    3.079646887547    0.990718472459
 H    1.962187169557    1.609649887547    1.884337472459
 H    1.962187169557    1.609649887547    0.097099472459
 C   -0.005175830443    1.501743887547    0.990718472459
 H   -0.544349830443    1.872896887547    0.095952472459
 H   -0.544349830443    1.872896887547    1.885484472459
 O   -0.004610830443    0.073236887547    0.990718472459
 C   -1.334197830443   -0.437170112453    0.990718472459
 H   -1.887580830443   -0.106391112453    0.091585472459
 H   -1.887580830443   -0.106391112453    1.889851472459
 H   -1.261114830443   -1.532645112453    0.990718472459
RB   -0.004367335341   -0.542399322286   -0.700728244955
