13

 C    1.437588322826    2.018860666026    1.100798302733
 H    1.472108322826    3.119712666026    1.100798302733
 H    1.962171322826    1.649715666026    1.994417302733
 H    1.962171322826    1.649715666026    0.207179302733
 C   -0.005191677174    1.541809666026    1.100798302733
 H   -0.544365677174    1.912962666026    0.206032302733
 H   -0.544365677174    1.912962666026    1.995564302733
 O   -0.004626677174    0.113302666026    1.100798302733
 C   -1.334213677174   -0.397104333974    1.100798302733
 H   -1.887596677174   -0.066325333974    0.201665302733
 H   -1.887596677174   -0.066325333974    1.999931302733
 H   -1.261130677174   -1.492579333974    1.100798302733
RB   -0.004356127060   -0.570737567122   -0.778586938839
