13

 C    1.437572476096    2.058926444505    1.210878133006
 H    1.472092476096    3.159778444505    1.210878133006
 H    1.962155476096    1.689781444505    2.104497133006
 H    1.962155476096    1.689781444505    0.317259133006
 C   -0.005207523904    1.581875444505    1.210878133006
 H   -0.544381523904    1.953028444505    0.316112133006
 H   -0.544381523904    1.953028444505    2.105644133006
 O   -0.004642523904    0.153368444505    1.210878133006
 C   -1.334229523904   -0.357038555495    1.210878133006
 H   -1.887612523904   -0.026259555495    0.311745133006
 H   -1.887612523904   -0.026259555495    2.110011133006
 H   -1.261146523904   -1.452513555495    1.210878133006
RB   -0.004344918778   -0.599075811958   -0.856445632723
