13

 C    1.437532859271    2.159090890701    1.486077708689
 H    1.472052859271    3.259942890701    1.486077708689
 H    1.962115859271    1.789945890701    2.379696708689
 H    1.962115859271    1.789945890701    0.592458708689
 C   -0.005247140729    1.682039890701    1.486077708689
 H   -0.544421140729    2.053192890701    0.591311708689
 H   -0.544421140729    2.053192890701    2.380843708689
 O   -0.004682140729    0.253532890701    1.486077708689
 C   -1.334269140729   -0.256874109299    1.486077708689
 H   -1.887652140729    0.073904890701    0.586944708689
 H   -1.887652140729    0.073904890701    2.385210708689
 H   -1.261186140729   -1.352349109299    1.486077708689
RB   -0.004316898075   -0.669921424048   -1.051092367433
