13

 C    1.437509089176    2.219189558420    1.651197454099
 H    1.472029089176    3.320041558420    1.651197454099
 H    1.962092089176    1.850044558420    2.544816454099
 H    1.962092089176    1.850044558420    0.757578454099
 C   -0.005270910824    1.742138558420    1.651197454099
 H   -0.544444910824    2.113291558420    0.756431454099
 H   -0.544444910824    2.113291558420    2.545963454099
 O   -0.004705910824    0.313631558420    1.651197454099
 C   -1.334292910824   -0.196775441580    1.651197454099
 H   -1.887675910824    0.134003558420    0.752064454099
 H   -1.887675910824    0.134003558420    2.550330454099
 H   -1.261209910824   -1.292250441580    1.651197454099
RB   -0.004300085653   -0.712428791302   -1.167880408259
