13

 C    1.437493242446    2.259255336898    1.761277284372
 H    1.472013242446    3.360107336898    1.761277284372
 H    1.962076242446    1.890110336898    2.654896284372
 H    1.962076242446    1.890110336898    0.867658284372
 C   -0.005286757554    1.782204336898    1.761277284372
 H   -0.544460757554    2.153357336898    0.866511284372
 H   -0.544460757554    2.153357336898    2.656043284372
 O   -0.004721757554    0.353697336898    1.761277284372
 C   -1.334308757554   -0.156709663102    1.761277284372
 H   -1.887691757554    0.174069336898    0.862144284372
 H   -1.887691757554    0.174069336898    2.660410284372
 H   -1.261225757554   -1.252184663102    1.761277284372
RB   -0.004288877372   -0.740767036138   -1.245739102143
