13

 C    1.437469472351    2.319354004616    1.926397029782
 H    1.471989472351    3.420206004616    1.926397029782
 H    1.962052472351    1.950209004616    2.820016029782
 H    1.962052472351    1.950209004616    1.032778029782
 C   -0.005310527649    1.842303004616    1.926397029782
 H   -0.544484527649    2.213456004616    1.031631029782
 H   -0.544484527649    2.213456004616    2.821163029782
 O   -0.004745527649    0.413796004616    1.926397029782
 C   -1.334332527649   -0.096610995384    1.926397029782
 H   -1.887715527649    0.234168004616    1.027264029782
 H   -1.887715527649    0.234168004616    2.825530029782
 H   -1.261249527649   -1.192085995384    1.926397029782
RB   -0.004272064950   -0.783274403392   -1.362527142969
