13

 C    1.437429855526    2.419518450813    2.201596605465
 H    1.471949855526    3.520370450813    2.201596605465
 H    1.962012855526    2.050373450813    3.095215605465
 H    1.962012855526    2.050373450813    1.307977605465
 C   -0.005350144474    1.942467450813    2.201596605465
 H   -0.544524144474    2.313620450813    1.306830605465
 H   -0.544524144474    2.313620450813    3.096362605465
 O   -0.004785144474    0.513960450813    2.201596605465
 C   -1.334372144474    0.003553450813    2.201596605465
 H   -1.887755144474    0.334332450813    1.302463605465
 H   -1.887755144474    0.334332450813    3.100729605465
 H   -1.261289144474   -1.091921549187    2.201596605465
RB   -0.004244044246   -0.854120015482   -1.557173877678
