13

 C    1.437374391970    2.559748675489    2.586876011422
 H    1.471894391970    3.660600675489    2.586876011422
 H    1.961957391970    2.190603675489    3.480495011422
 H    1.961957391970    2.190603675489    1.693257011422
 C   -0.005405608030    2.082697675489    2.586876011422
 H   -0.544579608030    2.453850675489    1.692110011422
 H   -0.544579608030    2.453850675489    3.481642011422
 O   -0.004840608030    0.654190675489    2.586876011422
 C   -1.334427608030    0.143783675489    2.586876011422
 H   -1.887810608030    0.474562675489    1.687743011422
 H   -1.887810608030    0.474562675489    3.486009011422
 H   -1.261344608030   -0.951691324511    2.586876011422
RB   -0.004204815262   -0.953303872408   -1.829679306272
