13

 C    1.437342698510    2.639880232446    2.807035671968
 H    1.471862698510    3.740732232446    2.807035671968
 H    1.961925698510    2.270735232446    3.700654671968
 H    1.961925698510    2.270735232446    1.913416671968
 C   -0.005437301490    2.162829232446    2.807035671968
 H   -0.544611301490    2.533982232446    1.912269671968
 H   -0.544611301490    2.533982232446    3.701801671968
 O   -0.004872301490    0.734322232446    2.807035671968
 C   -1.334459301490    0.223915232446    2.807035671968
 H   -1.887842301490    0.554694232446    1.907902671968
 H   -1.887842301490    0.554694232446    3.706168671968
 H   -1.261376301490   -0.871559767554    2.807035671968
RB   -0.004182398699   -1.009980362081   -1.985396694040
