13

 C    1.437334775145    2.659913121685    2.862075587105
 H    1.471854775145    3.760765121685    2.862075587105
 H    1.961917775145    2.290768121685    3.755694587105
 H    1.961917775145    2.290768121685    1.968456587105
 C   -0.005445224855    2.182862121685    2.862075587105
 H   -0.544619224855    2.554015121685    1.967309587105
 H   -0.544619224855    2.554015121685    3.756841587105
 O   -0.004880224855    0.754355121685    2.862075587105
 C   -1.334467224855    0.243948121685    2.862075587105
 H   -1.887850224855    0.574727121685    1.962942587105
 H   -1.887850224855    0.574727121685    3.761208587105
 H   -1.261384224855   -0.851526878315    2.862075587105
RB   -0.004176794558   -1.024149484499   -2.024326040982
