13

 C    1.437326851780    2.679946010925    2.917115502241
 H    1.471846851780    3.780798010925    2.917115502241
 H    1.961909851780    2.310801010925    3.810734502241
 H    1.961909851780    2.310801010925    2.023496502241
 C   -0.005453148220    2.202895010925    2.917115502241
 H   -0.544627148220    2.574048010925    2.022349502241
 H   -0.544627148220    2.574048010925    3.811881502241
 O   -0.004888148220    0.774388010925    2.917115502241
 C   -1.334475148220    0.263981010925    2.917115502241
 H   -1.887858148220    0.594760010925    2.017982502241
 H   -1.887858148220    0.594760010925    3.816248502241
 H   -1.261392148220   -0.831493989075    2.917115502241
RB   -0.004171190418   -1.038318606917   -2.063255387924
