13

 C    1.437311005050    2.720011789403    3.027195332515
 H    1.471831005050    3.820863789403    3.027195332515
 H    1.961894005050    2.350866789403    3.920814332515
 H    1.961894005050    2.350866789403    2.133576332515
 C   -0.005468994950    2.242960789403    3.027195332515
 H   -0.544642994950    2.614113789403    2.132429332515
 H   -0.544642994950    2.614113789403    3.921961332515
 O   -0.004903994950    0.814453789403    3.027195332515
 C   -1.334490994950    0.304046789403    3.027195332515
 H   -1.887873994950    0.634825789403    2.128062332515
 H   -1.887873994950    0.634825789403    3.926328332515
 H   -1.261407994950   -0.791428210597    3.027195332515
RB   -0.004159982136   -1.066656851753   -2.141114081808
