13

 C    1.437303081685    2.740044678643    3.082235247651
 H    1.471823081685    3.840896678643    3.082235247651
 H    1.961886081685    2.370899678643    3.975854247651
 H    1.961886081685    2.370899678643    2.188616247651
 C   -0.005476918315    2.262993678643    3.082235247651
 H   -0.544650918315    2.634146678643    2.187469247651
 H   -0.544650918315    2.634146678643    3.977001247651
 O   -0.004911918315    0.834486678643    3.082235247651
 C   -1.334498918315    0.324079678643    3.082235247651
 H   -1.887881918315    0.654858678643    2.183102247651
 H   -1.887881918315    0.654858678643    3.981368247651
 H   -1.261415918315   -0.771395321357    3.082235247651
RB   -0.004154377996   -1.080825974171   -2.180043428750
