13

 C    1.437279311590    2.800143346361    3.247354993061
 H    1.471799311590    3.900995346361    3.247354993061
 H    1.961862311590    2.430998346361    4.140973993061
 H    1.961862311590    2.430998346361    2.353735993061
 C   -0.005500688410    2.323092346361    3.247354993061
 H   -0.544674688410    2.694245346361    2.352588993061
 H   -0.544674688410    2.694245346361    4.142120993061
 O   -0.004935688410    0.894585346361    3.247354993061
 C   -1.334522688410    0.384178346361    3.247354993061
 H   -1.887905688410    0.714957346361    2.348221993061
 H   -1.887905688410    0.714957346361    4.146487993061
 H   -1.261439688410   -0.711296653639    3.247354993061
RB   -0.004137565574   -1.123333341425   -2.296831469576
