13

 C    1.437271388225    2.820176235600    3.302394908198
 H    1.471791388225    3.921028235600    3.302394908198
 H    1.961854388225    2.451031235600    4.196013908198
 H    1.961854388225    2.451031235600    2.408775908198
 C   -0.005508611775    2.343125235600    3.302394908198
 H   -0.544682611775    2.714278235600    2.407628908198
 H   -0.544682611775    2.714278235600    4.197160908198
 O   -0.004943611775    0.914618235600    3.302394908198
 C   -1.334530611775    0.404211235600    3.302394908198
 H   -1.887913611775    0.734990235600    2.403261908198
 H   -1.887913611775    0.734990235600    4.201527908198
 H   -1.261447611775   -0.691263764400    3.302394908198
RB   -0.004131961433   -1.137502463843   -2.335760816518
