13

 C    1.437263464860    2.840209124840    3.357434823334
 H    1.471783464860    3.941061124840    3.357434823334
 H    1.961846464860    2.471064124840    4.251053823334
 H    1.961846464860    2.471064124840    2.463815823334
 C   -0.005516535140    2.363158124840    3.357434823334
 H   -0.544690535140    2.734311124840    2.462668823334
 H   -0.544690535140    2.734311124840    4.252200823334
 O   -0.004951535140    0.934651124840    3.357434823334
 C   -1.334538535140    0.424244124840    3.357434823334
 H   -1.887921535140    0.755023124840    2.458301823334
 H   -1.887921535140    0.755023124840    4.256567823334
 H   -1.261455535140   -0.671230875160    3.357434823334
RB   -0.004126357292   -1.151671586261   -2.374690163460
