13

 C    1.437247618130    2.880274903318    3.467514653608
 H    1.471767618130    3.981126903318    3.467514653608
 H    1.961830618130    2.511129903318    4.361133653608
 H    1.961830618130    2.511129903318    2.573895653608
 C   -0.005532381870    2.403223903318    3.467514653608
 H   -0.544706381870    2.774376903318    2.572748653608
 H   -0.544706381870    2.774376903318    4.362280653608
 O   -0.004967381870    0.974716903318    3.467514653608
 C   -1.334554381870    0.464309903318    3.467514653608
 H   -1.887937381870    0.795088903318    2.568381653608
 H   -1.887937381870    0.795088903318    4.366647653608
 H   -1.261471381870   -0.631165096682    3.467514653608
RB   -0.004115149011   -1.180009831097   -2.452548857344
