13

 C    1.437192154575    3.020505127994    3.852794059564
 H    1.471712154575    4.121357127994    3.852794059564
 H    1.961775154575    2.651360127994    4.746413059564
 H    1.961775154575    2.651360127994    2.959175059564
 C   -0.005587845425    2.543454127994    3.852794059564
 H   -0.544761845425    2.914607127994    2.958028059564
 H   -0.544761845425    2.914607127994    4.747560059564
 O   -0.005022845425    1.114947127994    3.852794059564
 C   -1.334609845425    0.604540127994    3.852794059564
 H   -1.887992845425    0.935319127994    2.953661059564
 H   -1.887992845425    0.935319127994    4.751927059564
 H   -1.261526845425   -0.490934872006    3.852794059564
RB   -0.004075920026   -1.279193688023   -2.725054285937
