13

 C    1.437176307844    3.060570906472    3.962873889837
 H    1.471696307844    4.161422906472    3.962873889837
 H    1.961759307844    2.691425906472    4.856492889837
 H    1.961759307844    2.691425906472    3.069254889837
 C   -0.005603692156    2.583519906472    3.962873889837
 H   -0.544777692156    2.954672906472    3.068107889837
 H   -0.544777692156    2.954672906472    4.857639889837
 O   -0.005038692156    1.155012906472    3.962873889837
 C   -1.334625692156    0.644605906472    3.962873889837
 H   -1.888008692156    0.975384906472    3.063740889837
 H   -1.888008692156    0.975384906472    4.862006889837
 H   -1.261542692156   -0.450869093528    3.962873889837
RB   -0.004064711745   -1.307531932859   -2.802912979821
