13

 C    1.437160461114    3.100636684951    4.072953720111
 H    1.471680461114    4.201488684951    4.072953720111
 H    1.961743461114    2.731491684951    4.966572720111
 H    1.961743461114    2.731491684951    3.179334720111
 C   -0.005619538886    2.623585684951    4.072953720111
 H   -0.544793538886    2.994738684951    3.178187720111
 H   -0.544793538886    2.994738684951    4.967719720111
 O   -0.005054538886    1.195078684951    4.072953720111
 C   -1.334641538886    0.684671684951    4.072953720111
 H   -1.888024538886    1.015450684951    3.173820720111
 H   -1.888024538886    1.015450684951    4.972086720111
 H   -1.261558538886   -0.410803315049    4.072953720111
RB   -0.004053503464   -1.335870177695   -2.880771673705
