13

 C    1.437136691019    3.160735352669    4.238073465521
 H    1.471656691019    4.261587352669    4.238073465521
 H    1.961719691019    2.791590352669    5.131692465521
 H    1.961719691019    2.791590352669    3.344454465521
 C   -0.005643308981    2.683684352669    4.238073465521
 H   -0.544817308981    3.054837352669    3.343307465521
 H   -0.544817308981    3.054837352669    5.132839465521
 O   -0.005078308981    1.255177352669    4.238073465521
 C   -1.334665308981    0.744770352669    4.238073465521
 H   -1.888048308981    1.075549352669    3.338940465521
 H   -1.888048308981    1.075549352669    5.137206465521
 H   -1.261582308981   -0.350704647331    4.238073465521
RB   -0.004036691042   -1.378377544949   -2.997559714531
