13

 C    1.437120844289    3.200801131148    4.348153295794
 H    1.471640844289    4.301653131148    4.348153295794
 H    1.961703844289    2.831656131148    5.241772295794
 H    1.961703844289    2.831656131148    3.454534295794
 C   -0.005659155711    2.723750131148    4.348153295794
 H   -0.544833155711    3.094903131148    3.453387295794
 H   -0.544833155711    3.094903131148    5.242919295794
 O   -0.005094155711    1.295243131148    4.348153295794
 C   -1.334681155711    0.784836131148    4.348153295794
 H   -1.888064155711    1.115615131148    3.449020295794
 H   -1.888064155711    1.115615131148    5.247286295794
 H   -1.261598155711   -0.310638868852    4.348153295794
RB   -0.004025482760   -1.406715789785   -3.075418408415
