13

 C    1.437104997559    3.240866909627    4.458233126067
 H    1.471624997559    4.341718909627    4.458233126067
 H    1.961687997559    2.871721909627    5.351852126067
 H    1.961687997559    2.871721909627    3.564614126067
 C   -0.005675002441    2.763815909627    4.458233126067
 H   -0.544849002441    3.134968909627    3.563467126067
 H   -0.544849002441    3.134968909627    5.352999126067
 O   -0.005110002441    1.335308909627    4.458233126067
 C   -1.334697002441    0.824901909627    4.458233126067
 H   -1.888080002441    1.155680909627    3.559100126067
 H   -1.888080002441    1.155680909627    5.357366126067
 H   -1.261614002441   -0.270573090373    4.458233126067
RB   -0.004014274479   -1.435054034621   -3.153277102299
