13

 C    1.437097074194    3.260899798866    4.513273041204
 H    1.471617074194    4.361751798866    4.513273041204
 H    1.961680074194    2.891754798866    5.406892041204
 H    1.961680074194    2.891754798866    3.619654041204
 C   -0.005682925806    2.783848798866    4.513273041204
 H   -0.544856925806    3.155001798866    3.618507041204
 H   -0.544856925806    3.155001798866    5.408039041204
 O   -0.005117925806    1.355341798866    4.513273041204
 C   -1.334704925806    0.844934798866    4.513273041204
 H   -1.888087925806    1.175713798866    3.614140041204
 H   -1.888087925806    1.175713798866    5.412406041204
 H   -1.261621925806   -0.250540201134    4.513273041204
RB   -0.004008670338   -1.449223157039   -3.192206449241
