13

 C    1.437041610639    3.401130023541    4.898552447160
 H    1.471561610639    4.501982023541    4.898552447160
 H    1.961624610639    3.031985023541    5.792171447160
 H    1.961624610639    3.031985023541    4.004933447160
 C   -0.005738389361    2.924079023541    4.898552447160
 H   -0.544912389361    3.295232023541    4.003786447160
 H   -0.544912389361    3.295232023541    5.793318447160
 O   -0.005173389361    1.495572023541    4.898552447160
 C   -1.334760389361    0.985165023541    4.898552447160
 H   -1.888143389361    1.315944023541    3.999419447160
 H   -1.888143389361    1.315944023541    5.797685447160
 H   -1.261677389361   -0.110309976459    4.898552447160
RB   -0.003969441354   -1.548407013966   -3.464711877835
