13

 C    1.437009917179    3.481261580499    5.118712107707
 H    1.471529917179    4.582113580499    5.118712107707
 H    1.961592917179    3.112116580499    6.012331107707
 H    1.961592917179    3.112116580499    4.225093107707
 C   -0.005770082821    3.004210580499    5.118712107707
 H   -0.544944082821    3.375363580499    4.223946107707
 H   -0.544944082821    3.375363580499    6.013478107707
 O   -0.005205082821    1.575703580499    5.118712107707
 C   -1.334792082821    1.065296580499    5.118712107707
 H   -1.888175082821    1.396075580499    4.219579107707
 H   -1.888175082821    1.396075580499    6.017845107707
 H   -1.261709082821   -0.030178419501    5.118712107707
RB   -0.003947024791   -1.605083503638   -3.620429265602
