13

 C    1.436994070449    3.521327358978    5.228791937980
 H    1.471514070449    4.622179358978    5.228791937980
 H    1.961577070449    3.152182358978    6.122410937980
 H    1.961577070449    3.152182358978    4.335172937980
 C   -0.005785929551    3.044276358978    5.228791937980
 H   -0.544959929551    3.415429358978    4.334025937980
 H   -0.544959929551    3.415429358978    6.123557937980
 O   -0.005220929551    1.615769358978    5.228791937980
 C   -1.334807929551    1.105362358978    5.228791937980
 H   -1.888190929551    1.436141358978    4.329658937980
 H   -1.888190929551    1.436141358978    6.127924937980
 H   -1.261724929551    0.009887358978    5.228791937980
RB   -0.003935816510   -1.633421748474   -3.698287959486
