13

 C    1.436978223719    3.561393137456    5.338871768253
 H    1.471498223719    4.662245137456    5.338871768253
 H    1.961561223719    3.192248137456    6.232490768253
 H    1.961561223719    3.192248137456    4.445252768253
 C   -0.005801776281    3.084342137456    5.338871768253
 H   -0.544975776281    3.455495137456    4.444105768253
 H   -0.544975776281    3.455495137456    6.233637768253
 O   -0.005236776281    1.655835137456    5.338871768253
 C   -1.334823776281    1.145428137456    5.338871768253
 H   -1.888206776281    1.476207137456    4.439738768253
 H   -1.888206776281    1.476207137456    6.238004768253
 H   -1.261740776281    0.049953137456    5.338871768253
RB   -0.003924608228   -1.661759993310   -3.776146653370
