17

 C   -0.951349862750   -3.820184004248    0.000000000000
 H   -1.844799862750   -3.188764004248    0.000000000000
 H   -0.941199862750   -4.470454004248    0.885940000000
 H   -0.941199862750   -4.470454004248   -0.885940000000
 C    0.284220137250   -2.974094004248    0.000000000000
 O    0.305750137250   -1.737764004248    0.000000000000
 O    1.403400137250   -3.704064004248    0.000000000000
 H    2.170640137250   -3.103274004248    0.000000000000
NA   -0.070719862750    0.401955995752    0.000000000000
 O   -0.278658205551    1.583802705606    0.000000000000
 C   -0.257135004748    2.820135372094    0.000000000000
 O   -1.376312552874    3.550097927210    0.000000000000
 H   -2.143551506589    2.949318293066    0.000000000000
 C    0.978433713716    3.666230042892    0.000000000000
 H    1.871892913794    3.034804717619    0.000000000000
 H    0.968289454712    4.316494762236   -0.885944608418
 H    0.968289454712    4.316494762236    0.885944608418
