17

 C   -0.929535353184   -3.944169826250    0.000000000000
 H   -1.822985353184   -3.312749826250    0.000000000000
 H   -0.919385353184   -4.594439826250    0.885940000000
 H   -0.919385353184   -4.594439826250   -0.885940000000
 C    0.306034646816   -3.098079826250    0.000000000000
 O    0.327564646816   -1.861749826250    0.000000000000
 O    1.425214646816   -3.828049826250    0.000000000000
 H    2.192454646816   -3.227259826250    0.000000000000
NA   -0.048905353184    0.277970173750    0.000000000000
 O   -0.308828281685    1.755278561068    0.000000000000
 C   -0.287305080882    2.991611227557    0.000000000000
 O   -1.406482629008    3.721573782672    0.000000000000
 H   -2.173721582723    3.120794148528    0.000000000000
 C    0.948263637582    3.837705898354    0.000000000000
 H    1.841722837660    3.206280573082    0.000000000000
 H    0.938119378577    4.487970617698   -0.885944608418
 H    0.938119378577    4.487970617698    0.885944608418
