17

 C   -0.922263849995   -3.985498433583    0.000000000000
 H   -1.815713849995   -3.354078433583    0.000000000000
 H   -0.912113849995   -4.635768433583    0.885940000000
 H   -0.912113849995   -4.635768433583   -0.885940000000
 C    0.313306150005   -3.139408433583    0.000000000000
 O    0.334836150005   -1.903078433583    0.000000000000
 O    1.432486150005   -3.869378433583    0.000000000000
 H    2.199726150005   -3.268588433583    0.000000000000
NA   -0.041633849995    0.236641566417    0.000000000000
 O   -0.318884973730    1.812437179555    0.000000000000
 C   -0.297361772927    3.048769846044    0.000000000000
 O   -1.416539321053    3.778732401160    0.000000000000
 H   -2.183778274768    3.177952767016    0.000000000000
 C    0.938206945537    3.894864516842    0.000000000000
 H    1.831666145616    3.263439191569    0.000000000000
 H    0.928062686533    4.545129236186   -0.885944608418
 H    0.928062686533    4.545129236186    0.885944608418
