17

 C   -0.914992346806   -4.026827040917    0.000000000000
 H   -1.808442346806   -3.395407040917    0.000000000000
 H   -0.904842346806   -4.677097040917    0.885940000000
 H   -0.904842346806   -4.677097040917   -0.885940000000
 C    0.320577653194   -3.180737040917    0.000000000000
 O    0.342107653194   -1.944407040917    0.000000000000
 O    1.439757653194   -3.910707040917    0.000000000000
 H    2.206997653194   -3.309917040917    0.000000000000
NA   -0.034362346806    0.195312959083    0.000000000000
 O   -0.328941665775    1.869595798043    0.000000000000
 C   -0.307418464972    3.105928464532    0.000000000000
 O   -1.426596013098    3.835891019647    0.000000000000
 H   -2.193834966813    3.235111385503    0.000000000000
 C    0.928150253493    3.952023135329    0.000000000000
 H    1.821609453571    3.320597810057    0.000000000000
 H    0.918005994488    4.602287854673   -0.885944608418
 H    0.918005994488    4.602287854673    0.885944608418
