17

 C   -0.900449340429   -4.109484255585    0.000000000000
 H   -1.793899340429   -3.478064255585    0.000000000000
 H   -0.890299340429   -4.759754255585    0.885940000000
 H   -0.890299340429   -4.759754255585   -0.885940000000
 C    0.335120659571   -3.263394255585    0.000000000000
 O    0.356650659571   -2.027064255585    0.000000000000
 O    1.454300659571   -3.993364255585    0.000000000000
 H    2.221540659571   -3.392574255585    0.000000000000
NA   -0.019819340429    0.112655744415    0.000000000000
 O   -0.349055049864    1.983913035018    0.000000000000
 C   -0.327531849061    3.220245701506    0.000000000000
 O   -1.446709397187    3.950208256622    0.000000000000
 H   -2.213948350902    3.349428622478    0.000000000000
 C    0.908036869403    4.066340372304    0.000000000000
 H    1.801496069481    3.434915047031    0.000000000000
 H    0.897892610398    4.716605091648   -0.885944608418
 H    0.897892610398    4.716605091648    0.885944608418
