17

 C   -0.311457582143   -7.457101449621    0.000000000000
 H   -1.204907582143   -6.825681449621    0.000000000000
 H   -0.301307582143   -8.107371449621    0.885940000000
 H   -0.301307582143   -8.107371449621   -0.885940000000
 C    0.924112417857   -6.611011449621    0.000000000000
 O    0.945642417857   -5.374681449621    0.000000000000
 O    2.043292417857   -7.340981449621    0.000000000000
 H    2.810532417857   -6.740191449621    0.000000000000
NA    0.569172417857   -3.234961449621    0.000000000000
 O   -1.163647105487    6.613761132497    0.000000000000
 C   -1.142123904685    7.850093798986    0.000000000000
 O   -2.261301452810    8.580056354102    0.000000000000
 H   -3.028540406526    7.979276719958    0.000000000000
 C    0.093444813780    8.696188469784    0.000000000000
 H    0.986904013858    8.064763144511    0.000000000000
 H    0.083300554775    9.346453189128   -0.885944608418
 H    0.083300554775    9.346453189128    0.885944608418
