17

 C   -0.893177837240   -4.150812862919    0.000000000000
 H   -1.786627837240   -3.519392862919    0.000000000000
 H   -0.883027837240   -4.801082862919    0.885940000000
 H   -0.883027837240   -4.801082862919   -0.885940000000
 C    0.342392162760   -3.304722862919    0.000000000000
 O    0.363922162760   -2.068392862919    0.000000000000
 O    1.461572162760   -4.034692862919    0.000000000000
 H    2.228812162760   -3.433902862919    0.000000000000
NA   -0.012547837240    0.071327137081    0.000000000000
 O   -0.359111741909    2.041071653505    0.000000000000
 C   -0.337588541106    3.277404319994    0.000000000000
 O   -1.456766089232    4.007366875109    0.000000000000
 H   -2.224005042947    3.406587240965    0.000000000000
 C    0.897980177358    4.123498990791    0.000000000000
 H    1.791439377437    3.492073665519    0.000000000000
 H    0.887835918354    4.773763710135   -0.885944608418
 H    0.887835918354    4.773763710135    0.885944608418
