17

 C   -0.878634830863   -4.233470077586    0.000000000000
 H   -1.772084830863   -3.602050077586    0.000000000000
 H   -0.868484830863   -4.883740077586    0.885940000000
 H   -0.868484830863   -4.883740077586   -0.885940000000
 C    0.356935169137   -3.387380077586    0.000000000000
 O    0.378465169137   -2.151050077586    0.000000000000
 O    1.476115169137   -4.117350077586    0.000000000000
 H    2.243355169137   -3.516560077586    0.000000000000
NA    0.001995169137   -0.011330077586    0.000000000000
 O   -0.379225125998    2.155388890480    0.000000000000
 C   -0.357701925195    3.391721556969    0.000000000000
 O   -1.476879473321    4.121684112084    0.000000000000
 H   -2.244118427036    3.520904477940    0.000000000000
 C    0.877866793269    4.237816227766    0.000000000000
 H    1.771325993347    3.606390902494    0.000000000000
 H    0.867722534264    4.888080947110   -0.885944608418
 H    0.867722534264    4.888080947110    0.885944608418
