17

 C   -0.842277314919   -4.440113114255    0.000000000000
 H   -1.735727314919   -3.808693114255    0.000000000000
 H   -0.832127314919   -5.090383114255    0.885940000000
 H   -0.832127314919   -5.090383114255   -0.885940000000
 C    0.393292685081   -3.594023114255    0.000000000000
 O    0.414822685081   -2.357693114255    0.000000000000
 O    1.512472685081   -4.323993114255    0.000000000000
 H    2.279712685081   -3.723203114255    0.000000000000
NA    0.038352685081   -0.217973114255    0.000000000000
 O   -0.429508586222    2.441181982917    0.000000000000
 C   -0.407985385419    3.677514649406    0.000000000000
 O   -1.527162933545    4.407477204521    0.000000000000
 H   -2.294401887260    3.806697570377    0.000000000000
 C    0.827583333045    4.523609320203    0.000000000000
 H    1.721042533123    3.892183994931    0.000000000000
 H    0.817439074041    5.173874039547   -0.885944608418
 H    0.817439074041    5.173874039547    0.885944608418
