17

 C   -0.813191302164   -4.605427543590    0.000000000000
 H   -1.706641302164   -3.974007543590    0.000000000000
 H   -0.803041302164   -5.255697543590    0.885940000000
 H   -0.803041302164   -5.255697543590   -0.885940000000
 C    0.422378697836   -3.759337543590    0.000000000000
 O    0.443908697836   -2.523007543590    0.000000000000
 O    1.541558697836   -4.489307543590    0.000000000000
 H    2.308798697836   -3.888517543590    0.000000000000
NA    0.067438697836   -0.383287543590    0.000000000000
 O   -0.469735354401    2.669816456866    0.000000000000
 C   -0.448212153598    3.906149123355    0.000000000000
 O   -1.567389701724    4.636111678471    0.000000000000
 H   -2.334628655439    4.035332044327    0.000000000000
 C    0.787356564866    4.752243794153    0.000000000000
 H    1.680815764945    4.120818468880    0.000000000000
 H    0.777212305862    5.402508513497   -0.885944608418
 H    0.777212305862    5.402508513497    0.885944608418
