17

 C   -0.798648295787   -4.688084758258    0.000000000000
 H   -1.692098295787   -4.056664758258    0.000000000000
 H   -0.788498295787   -5.338354758258    0.885940000000
 H   -0.788498295787   -5.338354758258   -0.885940000000
 C    0.436921704213   -3.841994758258    0.000000000000
 O    0.458451704213   -2.605664758258    0.000000000000
 O    1.556101704213   -4.571964758258    0.000000000000
 H    2.323341704213   -3.971174758258    0.000000000000
NA    0.081981704213   -0.465944758258    0.000000000000
 O   -0.489848738490    2.784133693841    0.000000000000
 C   -0.468325537687    4.020466360330    0.000000000000
 O   -1.587503085813    4.750428915446    0.000000000000
 H   -2.354742039529    4.149649281302    0.000000000000
 C    0.767243180777    4.866561031128    0.000000000000
 H    1.660702380855    4.235135705855    0.000000000000
 H    0.757098921772    5.516825750472   -0.885944608418
 H    0.757098921772    5.516825750472    0.885944608418
