17

 C   -0.769562283032   -4.853399187593    0.000000000000
 H   -1.663012283032   -4.221979187593    0.000000000000
 H   -0.759412283032   -5.503669187593    0.885940000000
 H   -0.759412283032   -5.503669187593   -0.885940000000
 C    0.466007716968   -4.007309187593    0.000000000000
 O    0.487537716968   -2.770979187593    0.000000000000
 O    1.585187716968   -4.737279187593    0.000000000000
 H    2.352427716968   -4.136489187593    0.000000000000
NA    0.111067716968   -0.631259187593    0.000000000000
 O   -0.530075506669    3.012768167791    0.000000000000
 C   -0.508552305866    4.249100834280    0.000000000000
 O   -1.627729853992    4.979063389395    0.000000000000
 H   -2.394968807707    4.378283755251    0.000000000000
 C    0.727016412598    5.095195505077    0.000000000000
 H    1.620475612676    4.463770179805    0.000000000000
 H    0.716872153593    5.745460224421   -0.885944608418
 H    0.716872153593    5.745460224421    0.885944608418
