17

 C   -0.725933263900   -5.101370831595    0.000000000000
 H   -1.619383263900   -4.469950831595    0.000000000000
 H   -0.715783263900   -5.751640831595    0.885940000000
 H   -0.715783263900   -5.751640831595   -0.885940000000
 C    0.509636736100   -4.255280831595    0.000000000000
 O    0.531166736100   -3.018950831595    0.000000000000
 O    1.628816736100   -4.985250831595    0.000000000000
 H    2.396056736100   -4.384460831595    0.000000000000
NA    0.154696736100   -0.879230831595    0.000000000000
 O   -0.590415658938    3.355719878715    0.000000000000
 C   -0.568892458135    4.592052545204    0.000000000000
 O   -1.688070006261    5.322015100320    0.000000000000
 H   -2.455308959976    4.721235466176    0.000000000000
 C    0.666676260330    5.438147216002    0.000000000000
 H    1.560135460408    4.806721890729    0.000000000000
 H    0.656532001325    6.088411935346   -0.885944608418
 H    0.656532001325    6.088411935346    0.885944608418
