17

 C   -0.711390257522   -5.184028046263    0.000000000000
 H   -1.604840257522   -4.552608046263    0.000000000000
 H   -0.701240257522   -5.834298046263    0.885940000000
 H   -0.701240257522   -5.834298046263   -0.885940000000
 C    0.524179742478   -4.337938046263    0.000000000000
 O    0.545709742478   -3.101608046263    0.000000000000
 O    1.643359742478   -5.067908046263    0.000000000000
 H    2.410599742478   -4.467118046263    0.000000000000
NA    0.169239742478   -0.961888046263    0.000000000000
 O   -0.610529043027    3.470037115690    0.000000000000
 C   -0.589005842224    4.706369782179    0.000000000000
 O   -1.708183390350    5.436332337294    0.000000000000
 H   -2.475422344065    4.835552703151    0.000000000000
 C    0.646562876240    5.552464452976    0.000000000000
 H    1.540022076318    4.921039127704    0.000000000000
 H    0.636418617235    6.202729172321   -0.885944608418
 H    0.636418617235    6.202729172321    0.885944608418
