17

 C   -0.696847251145   -5.266685260930    0.000000000000
 H   -1.590297251145   -4.635265260930    0.000000000000
 H   -0.686697251145   -5.916955260930    0.885940000000
 H   -0.686697251145   -5.916955260930   -0.885940000000
 C    0.538722748855   -4.420595260930    0.000000000000
 O    0.560252748855   -3.184265260930    0.000000000000
 O    1.657902748855   -5.150565260930    0.000000000000
 H    2.425142748855   -4.549775260930    0.000000000000
NA    0.183782748855   -1.044545260930    0.000000000000
 O   -0.630642427117    3.584354352665    0.000000000000
 C   -0.609119226314    4.820687019154    0.000000000000
 O   -1.728296774440    5.550649574269    0.000000000000
 H   -2.495535728155    4.949869940125    0.000000000000
 C    0.626449492151    5.666781689951    0.000000000000
 H    1.519908692229    5.035356364679    0.000000000000
 H    0.616305233146    6.317046409295   -0.885944608418
 H    0.616305233146    6.317046409295    0.885944608418
