17

 C   -0.675032741579   -5.390671082932    0.000000000000
 H   -1.568482741579   -4.759251082932    0.000000000000
 H   -0.664882741579   -6.040941082932    0.885940000000
 H   -0.664882741579   -6.040941082932   -0.885940000000
 C    0.560537258421   -4.544581082932    0.000000000000
 O    0.582067258421   -3.308251082932    0.000000000000
 O    1.679717258421   -5.274551082932    0.000000000000
 H    2.446957258421   -4.673761082932    0.000000000000
NA    0.205597258421   -1.168531082932    0.000000000000
 O   -0.660812503251    3.755830208127    0.000000000000
 C   -0.639289302448    4.992162874616    0.000000000000
 O   -1.758466850574    5.722125429731    0.000000000000
 H   -2.525705804289    5.121345795588    0.000000000000
 C    0.596279416016    5.838257545414    0.000000000000
 H    1.489738616095    5.206832220141    0.000000000000
 H    0.586135157012    6.488522264758   -0.885944608418
 H    0.586135157012    6.488522264758    0.885944608418
