17

 C   -0.645946728824   -5.555985512267    0.000000000000
 H   -1.539396728824   -4.924565512267    0.000000000000
 H   -0.635796728824   -6.206255512267    0.885940000000
 H   -0.635796728824   -6.206255512267   -0.885940000000
 C    0.589623271176   -4.709895512267    0.000000000000
 O    0.611153271176   -3.473565512267    0.000000000000
 O    1.708803271176   -5.439865512267    0.000000000000
 H    2.476043271176   -4.839075512267    0.000000000000
NA    0.234683271176   -1.333845512267    0.000000000000
 O   -0.701039271430    3.984464682077    0.000000000000
 C   -0.679516070627    5.220797348565    0.000000000000
 O   -1.798693618753    5.950759903681    0.000000000000
 H   -2.565932572468    5.349980269537    0.000000000000
 C    0.556052647838    6.066892019363    0.000000000000
 H    1.449511847916    5.435466694090    0.000000000000
 H    0.545908388833    6.717156738707   -0.885944608418
 H    0.545908388833    6.717156738707    0.885944608418
