17

 C   -0.631403722447   -5.638642726934    0.000000000000
 H   -1.524853722447   -5.007222726934    0.000000000000
 H   -0.621253722447   -6.288912726934    0.885940000000
 H   -0.621253722447   -6.288912726934   -0.885940000000
 C    0.604166277553   -4.792552726934    0.000000000000
 O    0.625696277553   -3.556222726934    0.000000000000
 O    1.723346277553   -5.522522726934    0.000000000000
 H    2.490586277553   -4.921732726934    0.000000000000
NA    0.249226277553   -1.416502726934    0.000000000000
 O   -0.721152655519    4.098781919052    0.000000000000
 C   -0.699629454716    5.335114585540    0.000000000000
 O   -1.818807002842    6.065077140656    0.000000000000
 H   -2.586045956557    5.464297506512    0.000000000000
 C    0.535939263748    6.181209256338    0.000000000000
 H    1.429398463826    5.549783931065    0.000000000000
 H    0.525795004743    6.831473975682   -0.885944608418
 H    0.525795004743    6.831473975682    0.885944608418
