17

 C   -0.624132219258   -5.679971334268    0.000000000000
 H   -1.517582219258   -5.048551334268    0.000000000000
 H   -0.613982219258   -6.330241334268    0.885940000000
 H   -0.613982219258   -6.330241334268   -0.885940000000
 C    0.611437780742   -4.833881334268    0.000000000000
 O    0.632967780742   -3.597551334268    0.000000000000
 O    1.730617780742   -5.563851334268    0.000000000000
 H    2.497857780742   -4.963061334268    0.000000000000
NA    0.256497780742   -1.457831334268    0.000000000000
 O   -0.731209347564    4.155940537539    0.000000000000
 C   -0.709686146761    5.392273204028    0.000000000000
 O   -1.828863694887    6.122235759143    0.000000000000
 H   -2.596102648602    5.521456124999    0.000000000000
 C    0.525882571703    6.238367874825    0.000000000000
 H    1.419341771782    5.606942549553    0.000000000000
 H    0.515738312699    6.888632594169   -0.885944608418
 H    0.515738312699    6.888632594169    0.885944608418
