17

 C   -0.616860716069   -5.721299941602    0.000000000000
 H   -1.510310716069   -5.089879941602    0.000000000000
 H   -0.606710716069   -6.371569941602    0.885940000000
 H   -0.606710716069   -6.371569941602   -0.885940000000
 C    0.618709283931   -4.875209941602    0.000000000000
 O    0.640239283931   -3.638879941602    0.000000000000
 O    1.737889283931   -5.605179941602    0.000000000000
 H    2.505129283931   -5.004389941602    0.000000000000
NA    0.263769283931   -1.499159941602    0.000000000000
 O   -0.741266039609    4.213099156026    0.000000000000
 C   -0.719742838806    5.449431822515    0.000000000000
 O   -1.838920386932    6.179394377631    0.000000000000
 H   -2.606159340647    5.578614743487    0.000000000000
 C    0.515825879659    6.295526493313    0.000000000000
 H    1.409285079737    5.664101168040    0.000000000000
 H    0.505681620654    6.945791212657   -0.885944608418
 H    0.505681620654    6.945791212657    0.885944608418
