17

 C   -0.609589212880   -5.762628548936    0.000000000000
 H   -1.503039212880   -5.131208548936    0.000000000000
 H   -0.599439212880   -6.412898548936    0.885940000000
 H   -0.599439212880   -6.412898548936   -0.885940000000
 C    0.625980787120   -4.916538548936    0.000000000000
 O    0.647510787120   -3.680208548936    0.000000000000
 O    1.745160787120   -5.646508548936    0.000000000000
 H    2.512400787120   -5.045718548936    0.000000000000
NA    0.271040787120   -1.540488548936    0.000000000000
 O   -0.751322731653    4.270257774514    0.000000000000
 C   -0.729799530851    5.506590441002    0.000000000000
 O   -1.848977078976    6.236552996118    0.000000000000
 H   -2.616216032692    5.635773361974    0.000000000000
 C    0.505769187614    6.352685111800    0.000000000000
 H    1.399228387692    5.721259786527    0.000000000000
 H    0.495624928609    7.002949831144   -0.885944608418
 H    0.495624928609    7.002949831144    0.885944608418
