17

 C   -0.580503200126   -5.927942978271    0.000000000000
 H   -1.473953200126   -5.296522978271    0.000000000000
 H   -0.570353200126   -6.578212978271    0.885940000000
 H   -0.570353200126   -6.578212978271   -0.885940000000
 C    0.655066799874   -5.081852978271    0.000000000000
 O    0.676596799874   -3.845522978271    0.000000000000
 O    1.774246799874   -5.811822978271    0.000000000000
 H    2.541486799874   -5.211032978271    0.000000000000
NA    0.300126799874   -1.705802978271    0.000000000000
 O   -0.791549499832    4.498892248463    0.000000000000
 C   -0.770026299029    5.735224914952    0.000000000000
 O   -1.889203847155    6.465187470068    0.000000000000
 H   -2.656442800870    5.864407835924    0.000000000000
 C    0.465542419435    6.581319585750    0.000000000000
 H    1.359001619513    5.949894260477    0.000000000000
 H    0.455398160430    7.231584305094   -0.885944608418
 H    0.455398160430    7.231584305094    0.885944608418
