17

 C   -0.565960193748   -6.010600192938    0.000000000000
 H   -1.459410193748   -5.379180192938    0.000000000000
 H   -0.555810193748   -6.660870192938    0.885940000000
 H   -0.555810193748   -6.660870192938   -0.885940000000
 C    0.669609806252   -5.164510192938    0.000000000000
 O    0.691139806252   -3.928180192938    0.000000000000
 O    1.788789806252   -5.894480192938    0.000000000000
 H    2.556029806252   -5.293690192938    0.000000000000
NA    0.314669806252   -1.788460192938    0.000000000000
 O   -0.811662883922    4.613209485438    0.000000000000
 C   -0.790139683119    5.849542151927    0.000000000000
 O   -1.909317231245    6.579504707043    0.000000000000
 H   -2.676556184960    5.978725072899    0.000000000000
 C    0.445429035346    6.695636822725    0.000000000000
 H    1.338888235424    6.064211497452    0.000000000000
 H    0.435284776341    7.345901542069   -0.885944608418
 H    0.435284776341    7.345901542069    0.885944608418
