17

 C   -0.558688690559   -6.051928800272    0.000000000000
 H   -1.452138690559   -5.420508800272    0.000000000000
 H   -0.548538690559   -6.702198800272    0.885940000000
 H   -0.548538690559   -6.702198800272   -0.885940000000
 C    0.676881309441   -5.205838800272    0.000000000000
 O    0.698411309441   -3.969508800272    0.000000000000
 O    1.796061309441   -5.935808800272    0.000000000000
 H    2.563301309441   -5.335018800272    0.000000000000
NA    0.321941309441   -1.829788800272    0.000000000000
 O   -0.821719575967    4.670368103926    0.000000000000
 C   -0.800196375164    5.906700770414    0.000000000000
 O   -1.919373923290    6.636663325530    0.000000000000
 H   -2.686612877005    6.035883691386    0.000000000000
 C    0.435372343301    6.752795441212    0.000000000000
 H    1.328831543379    6.121370115939    0.000000000000
 H    0.425228084296    7.403060160556   -0.885944608418
 H    0.425228084296    7.403060160556    0.885944608418
