17

 C   -0.536874180993   -6.175914622274    0.000000000000
 H   -1.430324180993   -5.544494622274    0.000000000000
 H   -0.526724180993   -6.826184622274    0.885940000000
 H   -0.526724180993   -6.826184622274   -0.885940000000
 C    0.698695819007   -5.329824622274    0.000000000000
 O    0.720225819007   -4.093494622274    0.000000000000
 O    1.817875819007   -6.059794622274    0.000000000000
 H    2.585115819007   -5.459004622274    0.000000000000
NA    0.343755819007   -1.953774622274    0.000000000000
 O   -0.851889652101    4.841843959388    0.000000000000
 C   -0.830366451298    6.078176625877    0.000000000000
 O   -1.949543999424    6.808139180992    0.000000000000
 H   -2.716782953139    6.207359546848    0.000000000000
 C    0.405202267167    6.924271296674    0.000000000000
 H    1.298661467245    6.292845971402    0.000000000000
 H    0.395058008162    7.574536016018   -0.885944608418
 H    0.395058008162    7.574536016018    0.885944608418
