17

 C   -0.529602677805   -6.217243229607    0.000000000000
 H   -1.423052677805   -5.585823229607    0.000000000000
 H   -0.519452677805   -6.867513229607    0.885940000000
 H   -0.519452677805   -6.867513229607   -0.885940000000
 C    0.705967322195   -5.371153229607    0.000000000000
 O    0.727497322195   -4.134823229607    0.000000000000
 O    1.825147322195   -6.101123229607    0.000000000000
 H    2.592387322195   -5.500333229607    0.000000000000
NA    0.351027322195   -1.995103229607    0.000000000000
 O   -0.861946344146    4.899002577875    0.000000000000
 C   -0.840423143343    6.135335244364    0.000000000000
 O   -1.959600691468    6.865297799480    0.000000000000
 H   -2.726839645184    6.264518165336    0.000000000000
 C    0.395145575122    6.981429915162    0.000000000000
 H    1.288604775200    6.350004589889    0.000000000000
 H    0.385001316117    7.631694634506   -0.885944608418
 H    0.385001316117    7.631694634506    0.885944608418
