17

 C   -0.522331174616   -6.258571836941    0.000000000000
 H   -1.415781174616   -5.627151836941    0.000000000000
 H   -0.512181174616   -6.908841836941    0.885940000000
 H   -0.512181174616   -6.908841836941   -0.885940000000
 C    0.713238825384   -5.412481836941    0.000000000000
 O    0.734768825384   -4.176151836941    0.000000000000
 O    1.832418825384   -6.142451836941    0.000000000000
 H    2.599658825384   -5.541661836941    0.000000000000
NA    0.358298825384   -2.036431836941    0.000000000000
 O   -0.872003036190    4.956161196363    0.000000000000
 C   -0.850479835387    6.192493862851    0.000000000000
 O   -1.969657383513    6.922456417967    0.000000000000
 H   -2.736896337228    6.321676783823    0.000000000000
 C    0.385088883077    7.038588533649    0.000000000000
 H    1.278548083155    6.407163208376    0.000000000000
 H    0.374944624072    7.688853252993   -0.885944608418
 H    0.374944624072    7.688853252993    0.885944608418
