17

 C   -0.515059671427   -6.299900444275    0.000000000000
 H   -1.408509671427   -5.668480444275    0.000000000000
 H   -0.504909671427   -6.950170444275    0.885940000000
 H   -0.504909671427   -6.950170444275   -0.885940000000
 C    0.720510328573   -5.453810444275    0.000000000000
 O    0.742040328573   -4.217480444275    0.000000000000
 O    1.839690328573   -6.183780444275    0.000000000000
 H    2.606930328573   -5.582990444275    0.000000000000
NA    0.365570328573   -2.077760444275    0.000000000000
 O   -0.882059728235    5.013319814850    0.000000000000
 C   -0.860536527432    6.249652481339    0.000000000000
 O   -1.979714075558    6.979615036454    0.000000000000
 H   -2.746953029273    6.378835402310    0.000000000000
 C    0.375032191032    7.095747152136    0.000000000000
 H    1.268491391111    6.464321826864    0.000000000000
 H    0.364887932028    7.746011871480   -0.885944608418
 H    0.364887932028    7.746011871480    0.885944608418
