17

 C   -0.507788168238   -6.341229051609    0.000000000000
 H   -1.401238168238   -5.709809051609    0.000000000000
 H   -0.497638168238   -6.991499051609    0.885940000000
 H   -0.497638168238   -6.991499051609   -0.885940000000
 C    0.727781831762   -5.495139051609    0.000000000000
 O    0.749311831762   -4.258809051609    0.000000000000
 O    1.846961831762   -6.225109051609    0.000000000000
 H    2.614201831762   -5.624319051609    0.000000000000
NA    0.372841831762   -2.119089051609    0.000000000000
 O   -0.892116420280    5.070478433337    0.000000000000
 C   -0.870593219477    6.306811099826    0.000000000000
 O   -1.989770767603    7.036773654942    0.000000000000
 H   -2.757009721318    6.435994020798    0.000000000000
 C    0.364975498988    7.152905770624    0.000000000000
 H    1.258434699066    6.521480445351    0.000000000000
 H    0.354831239983    7.803170489968   -0.885944608418
 H    0.354831239983    7.803170489968    0.885944608418
