17

 C   -0.464159149106   -6.589200695611    0.000000000000
 H   -1.357609149106   -5.957780695611    0.000000000000
 H   -0.454009149106   -7.239470695611    0.885940000000
 H   -0.454009149106   -7.239470695611   -0.885940000000
 C    0.771410850894   -5.743110695611    0.000000000000
 O    0.792940850894   -4.506780695611    0.000000000000
 O    1.890590850894   -6.473080695611    0.000000000000
 H    2.657830850894   -5.872290695611    0.000000000000
NA    0.416470850894   -2.367060695611    0.000000000000
 O   -0.952456572548    5.413430144262    0.000000000000
 C   -0.930933371745    6.649762810751    0.000000000000
 O   -2.050110919871    7.379725365866    0.000000000000
 H   -2.817349873586    6.778945731722    0.000000000000
 C    0.304635346719    7.495857481548    0.000000000000
 H    1.198094546797    6.864432156276    0.000000000000
 H    0.294491087715    8.146122200892   -0.885944608418
 H    0.294491087715    8.146122200892    0.885944608418
