17

 C   -0.456887645918   -6.630529302945    0.000000000000
 H   -1.350337645918   -5.999109302945    0.000000000000
 H   -0.446737645918   -7.280799302945    0.885940000000
 H   -0.446737645918   -7.280799302945   -0.885940000000
 C    0.778682354082   -5.784439302945    0.000000000000
 O    0.800212354082   -4.548109302945    0.000000000000
 O    1.897862354082   -6.514409302945    0.000000000000
 H    2.665102354082   -5.913619302945    0.000000000000
NA    0.423742354082   -2.408389302945    0.000000000000
 O   -0.962513264593    5.470588762749    0.000000000000
 C   -0.940990063790    6.706921429238    0.000000000000
 O   -2.060167611916    7.436883984354    0.000000000000
 H   -2.827406565631    6.836104350210    0.000000000000
 C    0.294578654675    7.553016100036    0.000000000000
 H    1.188037854753    6.921590774763    0.000000000000
 H    0.284434395670    8.203280819380   -0.885944608418
 H    0.284434395670    8.203280819380    0.885944608418
