17

 C   -0.449616142729   -6.671857910279    0.000000000000
 H   -1.343066142729   -6.040437910279    0.000000000000
 H   -0.439466142729   -7.322127910279    0.885940000000
 H   -0.439466142729   -7.322127910279   -0.885940000000
 C    0.785953857271   -5.825767910279    0.000000000000
 O    0.807483857271   -4.589437910279    0.000000000000
 O    1.905133857271   -6.555737910279    0.000000000000
 H    2.672373857271   -5.954947910279    0.000000000000
NA    0.431013857271   -2.449717910279    0.000000000000
 O   -0.972569956638    5.527747381237    0.000000000000
 C   -0.951046755835    6.764080047725    0.000000000000
 O   -2.070224303960    7.494042602841    0.000000000000
 H   -2.837463257676    6.893262968697    0.000000000000
 C    0.284521962630    7.610174718523    0.000000000000
 H    1.177981162708    6.978749393250    0.000000000000
 H    0.274377703625    8.260439437867   -0.885944608418
 H    0.274377703625    8.260439437867    0.885944608418
