17

 C   -0.442344639540   -6.713186517613    0.000000000000
 H   -1.335794639540   -6.081766517613    0.000000000000
 H   -0.432194639540   -7.363456517613    0.885940000000
 H   -0.432194639540   -7.363456517613   -0.885940000000
 C    0.793225360460   -5.867096517613    0.000000000000
 O    0.814755360460   -4.630766517613    0.000000000000
 O    1.912405360460   -6.597066517613    0.000000000000
 H    2.679645360460   -5.996276517613    0.000000000000
NA    0.438285360460   -2.491046517613    0.000000000000
 O   -0.982626648682    5.584905999724    0.000000000000
 C   -0.961103447879    6.821238666213    0.000000000000
 O   -2.080280996005    7.551201221328    0.000000000000
 H   -2.847519949720    6.950421587184    0.000000000000
 C    0.274465270585    7.667333337010    0.000000000000
 H    1.167924470663    7.035908011738    0.000000000000
 H    0.264321011580    8.317598056354   -0.885944608418
 H    0.264321011580    8.317598056354    0.885944608418
