17

 C   -0.435073136351   -6.754515124946    0.000000000000
 H   -1.328523136351   -6.123095124946    0.000000000000
 H   -0.424923136351   -7.404785124946    0.885940000000
 H   -0.424923136351   -7.404785124946   -0.885940000000
 C    0.800496863649   -5.908425124946    0.000000000000
 O    0.822026863649   -4.672095124946    0.000000000000
 O    1.919676863649   -6.638395124946    0.000000000000
 H    2.686916863649   -6.037605124946    0.000000000000
NA    0.445556863649   -2.532375124946    0.000000000000
 O   -0.992683340727    5.642064618211    0.000000000000
 C   -0.971160139924    6.878397284700    0.000000000000
 O   -2.090337688050    7.608359839816    0.000000000000
 H   -2.857576641765    7.007580205672    0.000000000000
 C    0.264408578540    7.724491955498    0.000000000000
 H    1.157867778618    7.093066630225    0.000000000000
 H    0.254264319536    8.374756674842   -0.885944608418
 H    0.254264319536    8.374756674842    0.885944608418
