17

 C   -0.413258626785   -6.878500946948    0.000000000000
 H   -1.306708626785   -6.247080946948    0.000000000000
 H   -0.403108626785   -7.528770946948    0.885940000000
 H   -0.403108626785   -7.528770946948   -0.885940000000
 C    0.822311373215   -6.032410946948    0.000000000000
 O    0.843841373215   -4.796080946948    0.000000000000
 O    1.941491373215   -6.762380946948    0.000000000000
 H    2.708731373215   -6.161590946948    0.000000000000
NA    0.467371373215   -2.656360946948    0.000000000000
 O   -1.022853416861    5.813540473674    0.000000000000
 C   -1.001330216058    7.049873140162    0.000000000000
 O   -2.120507764184    7.779835695278    0.000000000000
 H   -2.887746717899    7.179056061134    0.000000000000
 C    0.234238502406    7.895967810960    0.000000000000
 H    1.127697702484    7.264542485687    0.000000000000
 H    0.224094243401    8.546232530304   -0.885944608418
 H    0.224094243401    8.546232530304    0.885944608418
