17

 C   -0.398715620408   -6.961158161615    0.000000000000
 H   -1.292165620408   -6.329738161615    0.000000000000
 H   -0.388565620408   -7.611428161615    0.885940000000
 H   -0.388565620408   -7.611428161615   -0.885940000000
 C    0.836854379592   -6.115068161615    0.000000000000
 O    0.858384379592   -4.878738161615    0.000000000000
 O    1.956034379592   -6.845038161615    0.000000000000
 H    2.723274379592   -6.244248161615    0.000000000000
NA    0.481914379592   -2.739018161615    0.000000000000
 O   -1.042966800951    5.927857710648    0.000000000000
 C   -1.021443600148    7.164190377137    0.000000000000
 O   -2.140621148274    7.894152932253    0.000000000000
 H   -2.907860101989    7.293373298109    0.000000000000
 C    0.214125118317    8.010285047935    0.000000000000
 H    1.107584318395    7.378859722662    0.000000000000
 H    0.203980859312    8.660549767279   -0.885944608418
 H    0.203980859312    8.660549767279    0.885944608418
