17

 C   -0.355086601276   -7.209129805618    0.000000000000
 H   -1.248536601276   -6.577709805618    0.000000000000
 H   -0.344936601276   -7.859399805618    0.885940000000
 H   -0.344936601276   -7.859399805618   -0.885940000000
 C    0.880483398724   -6.363039805618    0.000000000000
 O    0.902013398724   -5.126709805618    0.000000000000
 O    1.999663398724   -7.093009805618    0.000000000000
 H    2.766903398724   -6.492219805618    0.000000000000
NA    0.525543398724   -2.986989805618    0.000000000000
 O   -1.103306953219    6.270809421573    0.000000000000
 C   -1.081783752416    7.507142088062    0.000000000000
 O   -2.200961300542    8.237104643177    0.000000000000
 H   -2.968200254257    7.636325009033    0.000000000000
 C    0.153784966048    8.353236758859    0.000000000000
 H    1.047244166126    7.721811433587    0.000000000000
 H    0.143640707044    9.003501478203   -0.885944608418
 H    0.143640707044    9.003501478203    0.885944608418
