17

 C   -0.340543594898   -7.291787020285    0.000000000000
 H   -1.233993594898   -6.660367020285    0.000000000000
 H   -0.330393594898   -7.942057020285    0.885940000000
 H   -0.330393594898   -7.942057020285   -0.885940000000
 C    0.895026405102   -6.445697020285    0.000000000000
 O    0.916556405102   -5.209367020285    0.000000000000
 O    2.014206405102   -7.175667020285    0.000000000000
 H    2.781446405102   -6.574877020285    0.000000000000
NA    0.540086405102   -3.069647020285    0.000000000000
 O   -1.123420337309    6.385126658548    0.000000000000
 C   -1.101897136506    7.621459325036    0.000000000000
 O   -2.221074684631    8.351421880152    0.000000000000
 H   -2.988313638347    7.750642246008    0.000000000000
 C    0.133671581959    8.467553995834    0.000000000000
 H    1.027130782037    7.836128670561    0.000000000000
 H    0.123527322954    9.117818715178   -0.885944608418
 H    0.123527322954    9.117818715178    0.885944608418
