17

 C   -0.326000588521   -7.374444234953    0.000000000000
 H   -1.219450588521   -6.743024234953    0.000000000000
 H   -0.315850588521   -8.024714234953    0.885940000000
 H   -0.315850588521   -8.024714234953   -0.885940000000
 C    0.909569411479   -6.528354234953    0.000000000000
 O    0.931099411479   -5.292024234953    0.000000000000
 O    2.028749411479   -7.258324234953    0.000000000000
 H    2.795989411479   -6.657534234953    0.000000000000
NA    0.554629411479   -3.152304234953    0.000000000000
 O   -1.143533721398    6.499443895522    0.000000000000
 C   -1.122010520595    7.735776562011    0.000000000000
 O   -2.241188068721    8.465739117127    0.000000000000
 H   -3.008427022436    7.864959482983    0.000000000000
 C    0.113558197869    8.581871232809    0.000000000000
 H    1.007017397948    7.950445907536    0.000000000000
 H    0.103413938865    9.232135952153   -0.885944608418
 H    0.103413938865    9.232135952153    0.885944608418
