8

 C    0.269629737395   -1.429381398562    0.000000000000
 H    1.305129737395   -1.805469398562    0.000000000000
 H   -0.263570262605   -1.810084398562    0.888337000000
 H   -0.263570262605   -1.810084398562   -0.888337000000
 C    0.227863737395    0.126702601438    0.000000000000
 O   -0.939332262605    0.632925601438    0.000000000000
 O    1.351934737395    0.722120601438    0.000000000000
LI   -1.903297251359   -0.081757195652    0.000000000000
