8

 C    0.329378800998   -1.385083495217    0.000000000000
 H    1.364878800998   -1.761171495217    0.000000000000
 H   -0.203821199002   -1.765786495217    0.888337000000
 H   -0.203821199002   -1.765786495217   -0.888337000000
 C    0.287612800998    0.171000504783    0.000000000000
 O   -0.879583199002    0.677223504783    0.000000000000
 O    1.411683800998    0.766418504783    0.000000000000
LI   -2.405861097862   -0.454357590611    0.000000000000
