8

 C    1.020760822689   -0.872493470803    0.000000000000
 H    2.056260822689   -1.248581470803    0.000000000000
 H    0.487560822689   -1.253196470803    0.888337000000
 H    0.487560822689   -1.253196470803   -0.888337000000
 C    0.978994822689    0.683590529197    0.000000000000
 O   -0.188201177311    1.189813529197    0.000000000000
 O    2.103065822689    1.279008529197    0.000000000000
LI   -8.221242750259   -4.765876446556    0.000000000000
