8

 C    0.337914381512   -1.378755223311    0.000000000000
 H    1.373414381512   -1.754843223311    0.000000000000
 H   -0.195285618488   -1.759458223311    0.888337000000
 H   -0.195285618488   -1.759458223311   -0.888337000000
 C    0.296148381512    0.177328776689    0.000000000000
 O   -0.871047618488    0.683551776689    0.000000000000
 O    1.420219381512    0.772746776689    0.000000000000
LI   -2.477655933077   -0.507586218462    0.000000000000
