8

 C    0.354985542542   -1.366098679498    0.000000000000
 H    1.390485542542   -1.742186679498    0.000000000000
 H   -0.178214457458   -1.746801679498    0.888337000000
 H   -0.178214457458   -1.746801679498   -0.888337000000
 C    0.313219542542    0.189985320502    0.000000000000
 O   -0.853976457458    0.696208320502    0.000000000000
 O    1.437290542542    0.785403320502    0.000000000000
LI   -2.621245603507   -0.614043474164    0.000000000000
