8

 C    0.363521123057   -1.359770407592    0.000000000000
 H    1.399021123057   -1.735858407592    0.000000000000
 H   -0.169678876943   -1.740473407592    0.888337000000
 H   -0.169678876943   -1.740473407592   -0.888337000000
 C    0.321755123057    0.196313592408    0.000000000000
 O   -0.845440876943    0.702536592408    0.000000000000
 O    1.445826123057    0.791731592408    0.000000000000
LI   -2.693040438721   -0.667272102015    0.000000000000
