8

 C    0.406199025630   -1.328129048060    0.000000000000
 H    1.441699025630   -1.704217048060    0.000000000000
 H   -0.127000974370   -1.708832048060    0.888337000000
 H   -0.127000974370   -1.708832048060   -0.888337000000
 C    0.364433025630    0.227954951940    0.000000000000
 O   -0.802762974370    0.734177951940    0.000000000000
 O    1.488504025630    0.823372951940    0.000000000000
LI   -3.052014614795   -0.933415241271    0.000000000000
