8

 C    0.414734606145   -1.321800776154    0.000000000000
 H    1.450234606145   -1.697888776154    0.000000000000
 H   -0.118465393855   -1.702503776154    0.888337000000
 H   -0.118465393855   -1.702503776154   -0.888337000000
 C    0.372968606145    0.234283223846    0.000000000000
 O   -0.794227393855    0.740506223846    0.000000000000
 O    1.497039606145    0.829701223846    0.000000000000
LI   -3.123809450010   -0.986643869122    0.000000000000
