8

 C    0.423270186659   -1.315472504247    0.000000000000
 H    1.458770186659   -1.691560504247    0.000000000000
 H   -0.109929813341   -1.696175504247    0.888337000000
 H   -0.109929813341   -1.696175504247   -0.888337000000
 C    0.381504186659    0.240611495753    0.000000000000
 O   -0.785691813341    0.746834495753    0.000000000000
 O    1.505575186659    0.836029495753    0.000000000000
LI   -3.195604285225   -1.039872496974    0.000000000000
