8

 C    0.431805767174   -1.309144232341    0.000000000000
 H    1.467305767174   -1.685232232341    0.000000000000
 H   -0.101394232826   -1.689847232341    0.888337000000
 H   -0.101394232826   -1.689847232341   -0.888337000000
 C    0.390039767174    0.246939767659    0.000000000000
 O   -0.777156232826    0.753162767659    0.000000000000
 O    1.514110767174    0.842357767659    0.000000000000
LI   -3.267399120440   -1.093101124825    0.000000000000
