8

 C    0.440341347689   -1.302815960435    0.000000000000
 H    1.475841347689   -1.678903960435    0.000000000000
 H   -0.092858652311   -1.683518960435    0.888337000000
 H   -0.092858652311   -1.683518960435   -0.888337000000
 C    0.398575347689    0.253268039565    0.000000000000
 O   -0.768620652311    0.759491039565    0.000000000000
 O    1.522646347689    0.848686039565    0.000000000000
LI   -3.339193955654   -1.146329752676    0.000000000000
