8

 C    0.457412508718   -1.290159416622    0.000000000000
 H    1.492912508718   -1.666247416622    0.000000000000
 H   -0.075787491282   -1.670862416622    0.888337000000
 H   -0.075787491282   -1.670862416622   -0.888337000000
 C    0.415646508718    0.265924583378    0.000000000000
 O   -0.751549491282    0.772147583378    0.000000000000
 O    1.539717508718    0.861342583378    0.000000000000
LI   -3.482783626084   -1.252787008378    0.000000000000
