8

 C    0.474483669748   -1.277502872809    0.000000000000
 H    1.509983669748   -1.653590872809    0.000000000000
 H   -0.058716330252   -1.658205872809    0.888337000000
 H   -0.058716330252   -1.658205872809   -0.888337000000
 C    0.432717669748    0.278581127191    0.000000000000
 O   -0.734478330252    0.784804127191    0.000000000000
 O    1.556788669748    0.873999127191    0.000000000000
LI   -3.626373296514   -1.359244264081    0.000000000000
