8

 C    0.483019250262   -1.271174600903    0.000000000000
 H    1.518519250262   -1.647262600903    0.000000000000
 H   -0.050180749738   -1.651877600903    0.888337000000
 H   -0.050180749738   -1.651877600903   -0.888337000000
 C    0.441253250262    0.284909399097    0.000000000000
 O   -0.725942749738    0.791132399097    0.000000000000
 O    1.565324250262    0.880327399097    0.000000000000
LI   -3.698168131728   -1.412472891932    0.000000000000
