8

 C    0.534232733351   -1.233204969465    0.000000000000
 H    1.569732733351   -1.609292969465    0.000000000000
 H    0.001032733351   -1.613907969465    0.888337000000
 H    0.001032733351   -1.613907969465   -0.888337000000
 C    0.492466733351    0.322879030535    0.000000000000
 O   -0.674729266649    0.829102030535    0.000000000000
 O    1.616537733351    0.918297030535    0.000000000000
LI   -4.128937143017   -1.731844659039    0.000000000000
