8

 C    0.559839474895   -1.214220153746    0.000000000000
 H    1.595339474895   -1.590308153746    0.000000000000
 H    0.026639474895   -1.594923153746    0.888337000000
 H    0.026639474895   -1.594923153746   -0.888337000000
 C    0.518073474895    0.341863846254    0.000000000000
 O   -0.649122525105    0.848086846254    0.000000000000
 O    1.642144474895    0.937281846254    0.000000000000
LI   -4.344321648661   -1.891530542592    0.000000000000
