8

 C    0.568375055409   -1.207891881839    0.000000000000
 H    1.603875055409   -1.583979881839    0.000000000000
 H    0.035175055409   -1.588594881839    0.888337000000
 H    0.035175055409   -1.588594881839   -0.888337000000
 C    0.526609055409    0.348192118161    0.000000000000
 O   -0.640586944591    0.854415118161    0.000000000000
 O    1.650680055409    0.943610118161    0.000000000000
LI   -4.416116483876   -1.944759170444    0.000000000000
