8

 C    0.611052957983   -1.176250522308    0.000000000000
 H    1.646552957983   -1.552338522308    0.000000000000
 H    0.077852957983   -1.556953522308    0.888337000000
 H    0.077852957983   -1.556953522308   -0.888337000000
 C    0.569286957983    0.379833477692    0.000000000000
 O   -0.597909042017    0.886056477692    0.000000000000
 O    1.693357957983    0.975251477692    0.000000000000
LI   -4.775090659950   -2.210902309700    0.000000000000
