8

 C    0.628124119012   -1.163593978495    0.000000000000
 H    1.663624119012   -1.539681978495    0.000000000000
 H    0.094924119012   -1.544296978495    0.888337000000
 H    0.094924119012   -1.544296978495   -0.888337000000
 C    0.586358119012    0.392490021505    0.000000000000
 O   -0.580837880988    0.898713021505    0.000000000000
 O    1.710429119012    0.987908021505    0.000000000000
LI   -4.918680330380   -2.317359565402    0.000000000000
