8

 C    0.662266441071   -1.138280890870    0.000000000000
 H    1.697766441071   -1.514368890870    0.000000000000
 H    0.129066441071   -1.518983890870    0.888337000000
 H    0.129066441071   -1.518983890870   -0.888337000000
 C    0.620500441071    0.417803109130    0.000000000000
 O   -0.546695558929    0.924026109130    0.000000000000
 O    1.744571441071    1.013221109130    0.000000000000
LI   -5.205859671239   -2.530274076807    0.000000000000
