8

 C    0.704944343645   -1.106639531338    0.000000000000
 H    1.740444343645   -1.482727531338    0.000000000000
 H    0.171744343645   -1.487342531338    0.888337000000
 H    0.171744343645   -1.487342531338   -0.888337000000
 C    0.663178343645    0.449444468662    0.000000000000
 O   -0.504017656355    0.955667468662    0.000000000000
 O    1.787249343645    1.044862468662    0.000000000000
LI   -5.564833847313   -2.796417216063    0.000000000000
