8

 C    0.739086665703   -1.081326443712    0.000000000000
 H    1.774586665703   -1.457414443712    0.000000000000
 H    0.205886665703   -1.462029443712    0.888337000000
 H    0.205886665703   -1.462029443712   -0.888337000000
 C    0.697320665703    0.474757556288    0.000000000000
 O   -0.469875334297    0.980980556288    0.000000000000
 O    1.821391665703    1.070175556288    0.000000000000
LI   -5.852013188172   -3.009331727467    0.000000000000
