8

 C    0.841513631880   -1.005387180836    0.000000000000
 H    1.877013631880   -1.381475180836    0.000000000000
 H    0.308313631880   -1.386090180836    0.888337000000
 H    0.308313631880   -1.386090180836   -0.888337000000
 C    0.799747631880    0.550696819164    0.000000000000
 O   -0.367448368120    1.056919819164    0.000000000000
 O    1.923818631880    1.146114819164    0.000000000000
LI   -6.713551210749   -3.648075261682    0.000000000000
