8

 C    0.850049212394   -0.999058908930    0.000000000000
 H    1.885549212394   -1.375146908930    0.000000000000
 H    0.316849212394   -1.379761908930    0.888337000000
 H    0.316849212394   -1.379761908930   -0.888337000000
 C    0.808283212394    0.557025091070    0.000000000000
 O   -0.358912787606    1.063248091070    0.000000000000
 O    1.932354212394    1.152443091070    0.000000000000
LI   -6.785346045964   -3.701303889533    0.000000000000
