8

 C    0.875655953939   -0.980074093211    0.000000000000
 H    1.911155953939   -1.356162093211    0.000000000000
 H    0.342455953939   -1.360777093211    0.888337000000
 H    0.342455953939   -1.360777093211   -0.888337000000
 C    0.833889953939    0.576009906789    0.000000000000
 O   -0.333306046061    1.082232906789    0.000000000000
 O    1.957960953939    1.171427906789    0.000000000000
LI   -7.000730551608   -3.860989773086    0.000000000000
