8

 C    0.892727114968   -0.967417549398    0.000000000000
 H    1.928227114968   -1.343505549398    0.000000000000
 H    0.359527114968   -1.348120549398    0.888337000000
 H    0.359527114968   -1.348120549398   -0.888337000000
 C    0.850961114968    0.588666450602    0.000000000000
 O   -0.316234885032    1.094889450602    0.000000000000
 O    1.975032114968    1.184084450602    0.000000000000
LI   -7.144320222038   -3.967447028789    0.000000000000
