8

 C    0.909798275997   -0.954761005585    0.000000000000
 H    1.945298275997   -1.330849005585    0.000000000000
 H    0.376598275997   -1.335464005585    0.888337000000
 H    0.376598275997   -1.335464005585   -0.888337000000
 C    0.868032275997    0.601322994415    0.000000000000
 O   -0.299163724003    1.107545994415    0.000000000000
 O    1.992103275997    1.196740994415    0.000000000000
LI   -7.287909892467   -4.073904284491    0.000000000000
