8

 C    0.918333856512   -0.948432733679    0.000000000000
 H    1.953833856512   -1.324520733679    0.000000000000
 H    0.385133856512   -1.329135733679    0.888337000000
 H    0.385133856512   -1.329135733679   -0.888337000000
 C    0.876567856512    0.607651266321    0.000000000000
 O   -0.290628143488    1.113874266321    0.000000000000
 O    2.000638856512    1.203069266321    0.000000000000
LI   -7.359704727682   -4.127132912342    0.000000000000
