8

 C    0.926869437027   -0.942104461773    0.000000000000
 H    1.962369437027   -1.318192461773    0.000000000000
 H    0.393669437027   -1.322807461773    0.888337000000
 H    0.393669437027   -1.322807461773   -0.888337000000
 C    0.885103437027    0.613979538227    0.000000000000
 O   -0.282092562973    1.120202538227    0.000000000000
 O    2.009174437027    1.209397538227    0.000000000000
LI   -7.431499562897   -4.180361540193    0.000000000000
