8

 C    0.943940598056   -0.929447917960    0.000000000000
 H    1.979440598056   -1.305535917960    0.000000000000
 H    0.410740598056   -1.310150917960    0.888337000000
 H    0.410740598056   -1.310150917960   -0.888337000000
 C    0.902174598056    0.626636082040    0.000000000000
 O   -0.265021401944    1.132859082040    0.000000000000
 O    2.026245598056    1.222054082040    0.000000000000
LI   -7.575089233326   -4.286818795896    0.000000000000
