8

 C    0.952476178571   -0.923119646054    0.000000000000
 H    1.987976178571   -1.299207646054    0.000000000000
 H    0.419276178571   -1.303822646054    0.888337000000
 H    0.419276178571   -1.303822646054   -0.888337000000
 C    0.910710178571    0.632964353946    0.000000000000
 O   -0.256485821429    1.139187353946    0.000000000000
 O    2.034781178571    1.228382353946    0.000000000000
LI   -7.646884068541   -4.340047423747    0.000000000000
