8

 C    0.969547339600   -0.910463102241    0.000000000000
 H    2.005047339600   -1.286551102241    0.000000000000
 H    0.436347339600   -1.291166102241    0.888337000000
 H    0.436347339600   -1.291166102241   -0.888337000000
 C    0.927781339600    0.645620897759    0.000000000000
 O   -0.239414660400    1.151843897759    0.000000000000
 O    2.051852339600    1.241038897759    0.000000000000
LI   -7.790473738971   -4.446504679449    0.000000000000
