8

 C    1.003689661659   -0.885150014616    0.000000000000
 H    2.039189661659   -1.261238014616    0.000000000000
 H    0.470489661659   -1.265853014616    0.888337000000
 H    0.470489661659   -1.265853014616   -0.888337000000
 C    0.961923661659    0.670933985384    0.000000000000
 O   -0.205272338341    1.177156985384    0.000000000000
 O    2.085994661659    1.266351985384    0.000000000000
LI   -8.077653079830   -4.659419190854    0.000000000000
