8

 C    1.012225242174   -0.878821742709    0.000000000000
 H    2.047725242174   -1.254909742709    0.000000000000
 H    0.479025242174   -1.259524742709    0.888337000000
 H    0.479025242174   -1.259524742709   -0.888337000000
 C    0.970459242174    0.677262257291    0.000000000000
 O   -0.196736757826    1.183485257291    0.000000000000
 O    2.094530242174    1.272680257291    0.000000000000
LI   -8.149447915045   -4.712647818705    0.000000000000
