28

 C   -1.252660578121   -4.582351372545    0.000000000000
 H   -1.244260578121   -5.673781372545    0.000000000000
 C   -0.040890578121   -3.872111372545    0.000000000000
 H    0.910709421879   -4.407731372545    0.000000000000
 C   -2.476860578121   -3.888701372545    0.000000000000
 H   -3.420390578121   -4.438361372545    0.000000000000
 C   -0.047010578121   -2.462561372545    0.000000000000
 H    0.900449421879   -1.914491372545    0.000000000000
 C   -2.501670578121   -2.482501372545    0.000000000000
 H   -3.454270578121   -1.943611372545    0.000000000000
 C   -1.282600578121   -1.797441372545    0.000000000000
 O   -1.242750578121   -0.362171372545    0.000000000000
 H   -2.166020578121   -0.053811372545    0.000000000000
NA    0.189859421879    0.055328627455    1.885600000000
NA    0.189859421879    0.055328627455   -1.885600000000
 O    1.149921470163    0.335115802722    0.000000000000
 H    2.073201037955    0.026762324067    0.000000000000
 C    1.189777148258    1.770392540436    0.000000000000
 C   -0.045820204959    2.435510333253    0.000000000000
 H   -0.993280894710    1.887441145125    0.000000000000
 C   -0.051939137348    3.845057051978    0.000000000000
 H   -1.003535522208    4.380673183849    0.000000000000
 C    1.159834586170    4.555303079346    0.000000000000
 H    1.151434702272    5.646730756084    0.000000000000
 C    2.384034097486    3.861650860943    0.000000000000
 H    3.327565571478    4.411309845393    0.000000000000
 C    2.408845140462    2.455449727198    0.000000000000
 H    3.361443872297    1.916563516847    0.000000000000
