28

 C   -1.291233920301   -4.593592652698    0.000000000000
 H   -1.282833920301   -5.685022652698    0.000000000000
 C   -0.079463920301   -3.883352652698    0.000000000000
 H    0.872136079699   -4.418972652698    0.000000000000
 C   -2.515433920301   -3.899942652698    0.000000000000
 H   -3.458963920301   -4.449602652698    0.000000000000
 C   -0.085583920301   -2.473802652698    0.000000000000
 H    0.861876079699   -1.925732652698    0.000000000000
 C   -2.540243920301   -2.493742652698    0.000000000000
 H   -3.492843920301   -1.954852652698    0.000000000000
 C   -1.321173920301   -1.808682652698    0.000000000000
 O   -1.281323920301   -0.373412652698    0.000000000000
 H   -2.204593920301   -0.065052652698    0.000000000000
NA    0.151286079699    0.044087347302    1.885600000000
NA    0.151286079699    0.044087347302   -1.885600000000
 O    1.207354332812    0.351853240095    0.000000000000
 H    2.130633900603    0.043499761440    0.000000000000
 C    1.247210010907    1.787129977809    0.000000000000
 C    0.011612657690    2.452247770627    0.000000000000
 H   -0.935848032062    1.904178582498    0.000000000000
 C    0.005493725301    3.861794489351    0.000000000000
 H   -0.946102659560    4.397410621222    0.000000000000
 C    1.217267448818    4.572040516719    0.000000000000
 H    1.208867564921    5.663468193458    0.000000000000
 C    2.441466960134    3.878388298317    0.000000000000
 H    3.384998434126    4.428047282767    0.000000000000
 C    2.466278003111    2.472187164572    0.000000000000
 H    3.418876734946    1.933300954221    0.000000000000
