28

 C   -1.406953946842   -4.627316493158    0.000000000000
 H   -1.398553946842   -5.718746493158    0.000000000000
 C   -0.195183946842   -3.917076493158    0.000000000000
 H    0.756416053158   -4.452696493158    0.000000000000
 C   -2.631153946842   -3.933666493158    0.000000000000
 H   -3.574683946842   -4.483326493158    0.000000000000
 C   -0.201303946842   -2.507526493158    0.000000000000
 H    0.746156053158   -1.959456493158    0.000000000000
 C   -2.655963946842   -2.527466493158    0.000000000000
 H   -3.608563946842   -1.988576493158    0.000000000000
 C   -1.436893946842   -1.842406493158    0.000000000000
 O   -1.397043946842   -0.407136493158    0.000000000000
 H   -2.320313946842   -0.098776493158    0.000000000000
NA    0.035566053158    0.010363506842    1.885600000000
NA    0.035566053158    0.010363506842   -1.885600000000
 O    1.379652920757    0.402065552216    0.000000000000
 H    2.302932488548    0.093712073561    0.000000000000
 C    1.419508598852    1.837342289930    0.000000000000
 C    0.183911245635    2.502460082748    0.000000000000
 H   -0.763549444117    1.954390894619    0.000000000000
 C    0.177792313246    3.912006801472    0.000000000000
 H   -0.773804071615    4.447622933343    0.000000000000
 C    1.389566036763    4.622252828840    0.000000000000
 H    1.381166152866    5.713680505578    0.000000000000
 C    2.613765548079    3.928600610437    0.000000000000
 H    3.557297022071    4.478259594887    0.000000000000
 C    2.638576591056    2.522399476692    0.000000000000
 H    3.591175322891    1.983513266342    0.000000000000
