28

 C   -1.522673973382   -4.661040333617    0.000000000000
 H   -1.514273973382   -5.752470333617    0.000000000000
 C   -0.310903973382   -3.950800333617    0.000000000000
 H    0.640696026618   -4.486420333617    0.000000000000
 C   -2.746873973382   -3.967390333617    0.000000000000
 H   -3.690403973382   -4.517050333617    0.000000000000
 C   -0.317023973382   -2.541250333617    0.000000000000
 H    0.630436026618   -1.993180333617    0.000000000000
 C   -2.771683973382   -2.561190333617    0.000000000000
 H   -3.724283973382   -2.022300333617    0.000000000000
 C   -1.552613973382   -1.876130333617    0.000000000000
 O   -1.512763973382   -0.440860333617    0.000000000000
 H   -2.436033973382   -0.132500333617    0.000000000000
NA   -0.080153973382   -0.023360333617    1.885600000000
NA   -0.080153973382   -0.023360333617   -1.885600000000
 O    1.551951508702    0.452277864336    0.000000000000
 H    2.475231076494    0.143924385682    0.000000000000
 C    1.591807186797    1.887554602050    0.000000000000
 C    0.356209833580    2.552672394868    0.000000000000
 H   -0.591250856172    2.004603206739    0.000000000000
 C    0.350090901191    3.962219113592    0.000000000000
 H   -0.601505483670    4.497835245464    0.000000000000
 C    1.561864624708    4.672465140960    0.000000000000
 H    1.553464740811    5.763892817699    0.000000000000
 C    2.786064136024    3.978812922558    0.000000000000
 H    3.729595610016    4.528471907008    0.000000000000
 C    2.810875179001    2.572611788813    0.000000000000
 H    3.763473910836    2.033725578462    0.000000000000
