28

 C   -1.561247315562   -4.672281613770    0.000000000000
 H   -1.552847315562   -5.763711613770    0.000000000000
 C   -0.349477315562   -3.962041613770    0.000000000000
 H    0.602122684438   -4.497661613770    0.000000000000
 C   -2.785447315562   -3.978631613770    0.000000000000
 H   -3.728977315562   -4.528291613770    0.000000000000
 C   -0.355597315562   -2.552491613770    0.000000000000
 H    0.591862684438   -2.004421613770    0.000000000000
 C   -2.810257315562   -2.572431613770    0.000000000000
 H   -3.762857315562   -2.033541613770    0.000000000000
 C   -1.591187315562   -1.887371613770    0.000000000000
 O   -1.551337315562   -0.452101613770    0.000000000000
 H   -2.474607315562   -0.143741613770    0.000000000000
NA   -0.118727315562   -0.034601613770    1.885600000000
NA   -0.118727315562   -0.034601613770   -1.885600000000
 O    1.609384371350    0.469015301710    0.000000000000
 H    2.532663939142    0.160661823055    0.000000000000
 C    1.649240049445    1.904292039424    0.000000000000
 C    0.413642696228    2.569409832242    0.000000000000
 H   -0.533817993523    2.021340644113    0.000000000000
 C    0.407523763839    3.978956550966    0.000000000000
 H   -0.544072621021    4.514572682837    0.000000000000
 C    1.619297487357    4.689202578334    0.000000000000
 H    1.610897603459    5.780630255072    0.000000000000
 C    2.843496998672    3.995550359932    0.000000000000
 H    3.787028472664    4.545209344381    0.000000000000
 C    2.868308041649    2.589349226186    0.000000000000
 H    3.820906773484    2.050463015836    0.000000000000
