28

 C   -1.676967342102   -4.706005454230    0.000000000000
 H   -1.668567342102   -5.797435454230    0.000000000000
 C   -0.465197342102   -3.995765454230    0.000000000000
 H    0.486402657898   -4.531385454230    0.000000000000
 C   -2.901167342102   -4.012355454230    0.000000000000
 H   -3.844697342102   -4.562015454230    0.000000000000
 C   -0.471317342102   -2.586215454230    0.000000000000
 H    0.476142657898   -2.038145454230    0.000000000000
 C   -2.925977342102   -2.606155454230    0.000000000000
 H   -3.878577342102   -2.067265454230    0.000000000000
 C   -1.706907342102   -1.921095454230    0.000000000000
 O   -1.667057342102   -0.485825454230    0.000000000000
 H   -2.590327342102   -0.177465454230    0.000000000000
NA   -0.234447342102   -0.068325454230    1.885600000000
NA   -0.234447342102   -0.068325454230   -1.885600000000
 O    1.781682959295    0.519227613830    0.000000000000
 H    2.704962527087    0.210874135176    0.000000000000
 C    1.821538637390    1.954504351545    0.000000000000
 C    0.585941284173    2.619622144362    0.000000000000
 H   -0.361519405578    2.071552956234    0.000000000000
 C    0.579822351784    4.029168863086    0.000000000000
 H   -0.371774033076    4.564784994958    0.000000000000
 C    1.791596075302    4.739414890455    0.000000000000
 H    1.783196191404    5.830842567193    0.000000000000
 C    3.015795586617    4.045762672052    0.000000000000
 H    3.959327060609    4.595421656502    0.000000000000
 C    3.040606629594    2.639561538307    0.000000000000
 H    3.993205361429    2.100675327956    0.000000000000
