28

 C   -1.715540684282   -4.717246734383    0.000000000000
 H   -1.707140684282   -5.808676734383    0.000000000000
 C   -0.503770684282   -4.007006734383    0.000000000000
 H    0.447829315718   -4.542626734383    0.000000000000
 C   -2.939740684282   -4.023596734383    0.000000000000
 H   -3.883270684282   -4.573256734383    0.000000000000
 C   -0.509890684282   -2.597456734383    0.000000000000
 H    0.437569315718   -2.049386734383    0.000000000000
 C   -2.964550684282   -2.617396734383    0.000000000000
 H   -3.917150684282   -2.078506734383    0.000000000000
 C   -1.745480684282   -1.932336734383    0.000000000000
 O   -1.705630684282   -0.497066734383    0.000000000000
 H   -2.628900684282   -0.188706734383    0.000000000000
NA   -0.273020684282   -0.079566734383    1.885600000000
NA   -0.273020684282   -0.079566734383   -1.885600000000
 O    1.839115821944    0.535965051204    0.000000000000
 H    2.762395389735    0.227611572549    0.000000000000
 C    1.878971500039    1.971241788918    0.000000000000
 C    0.643374146821    2.636359581736    0.000000000000
 H   -0.304086542930    2.088290393607    0.000000000000
 C    0.637255214432    4.045906300460    0.000000000000
 H   -0.314341170428    4.581522432331    0.000000000000
 C    1.849028937950    4.756152327828    0.000000000000
 H    1.840629054053    5.847580004566    0.000000000000
 C    3.073228449266    4.062500109426    0.000000000000
 H    4.016759923258    4.612159093876    0.000000000000
 C    3.098039492242    2.656298975680    0.000000000000
 H    4.050638224078    2.117412765330    0.000000000000
