28

 C   -1.792687368643   -4.739729294689    0.000000000000
 H   -1.784287368643   -5.831159294689    0.000000000000
 C   -0.580917368643   -4.029489294689    0.000000000000
 H    0.370682631357   -4.565109294689    0.000000000000
 C   -3.016887368643   -4.046079294689    0.000000000000
 H   -3.960417368643   -4.595739294689    0.000000000000
 C   -0.587037368643   -2.619939294689    0.000000000000
 H    0.360422631357   -2.071869294689    0.000000000000
 C   -3.041697368643   -2.639879294689    0.000000000000
 H   -3.994297368643   -2.100989294689    0.000000000000
 C   -1.822627368643   -1.954819294689    0.000000000000
 O   -1.782777368643   -0.519549294689    0.000000000000
 H   -2.706047368643   -0.211189294689    0.000000000000
NA   -0.350167368643   -0.102049294689    1.885600000000
NA   -0.350167368643   -0.102049294689   -1.885600000000
 O    1.953981547240    0.569439925951    0.000000000000
 H    2.877261115032    0.261086447296    0.000000000000
 C    1.993837225335    2.004716663665    0.000000000000
 C    0.758239872118    2.669834456483    0.000000000000
 H   -0.189220817633    2.121765268354    0.000000000000
 C    0.752120939729    4.079381175207    0.000000000000
 H   -0.199475445131    4.614997307078    0.000000000000
 C    1.963894663247    4.789627202575    0.000000000000
 H    1.955494779349    5.881054879313    0.000000000000
 C    3.188094174562    4.095974984173    0.000000000000
 H    4.131625648554    4.645633968623    0.000000000000
 C    3.212905217539    2.689773850427    0.000000000000
 H    4.165503949374    2.150887640077    0.000000000000
