28

 C   -1.831260710823   -4.750970574842    0.000000000000
 H   -1.822860710823   -5.842400574842    0.000000000000
 C   -0.619490710823   -4.040730574842    0.000000000000
 H    0.332109289177   -4.576350574842    0.000000000000
 C   -3.055460710823   -4.057320574842    0.000000000000
 H   -3.998990710823   -4.606980574842    0.000000000000
 C   -0.625610710823   -2.631180574842    0.000000000000
 H    0.321849289177   -2.083110574842    0.000000000000
 C   -3.080270710823   -2.651120574842    0.000000000000
 H   -4.032870710823   -2.112230574842    0.000000000000
 C   -1.861200710823   -1.966060574842    0.000000000000
 O   -1.821350710823   -0.530790574842    0.000000000000
 H   -2.744620710823   -0.222430574842    0.000000000000
NA   -0.388740710823   -0.113290574842    1.885600000000
NA   -0.388740710823   -0.113290574842   -1.885600000000
 O    2.011414409889    0.586177363324    0.000000000000
 H    2.934693977680    0.277823884670    0.000000000000
 C    2.051270087984    2.021454101039    0.000000000000
 C    0.815672734767    2.686571893856    0.000000000000
 H   -0.131787954985    2.138502705728    0.000000000000
 C    0.809553802378    4.096118612581    0.000000000000
 H   -0.142042582483    4.631734744452    0.000000000000
 C    2.021327525895    4.806364639949    0.000000000000
 H    2.012927641998    5.897792316687    0.000000000000
 C    3.245527037211    4.112712421546    0.000000000000
 H    4.189058511203    4.662371405996    0.000000000000
 C    3.270338080188    2.706511287801    0.000000000000
 H    4.222936812023    2.167625077450    0.000000000000
