28

 C   -1.869834053003   -4.762211854995    0.000000000000
 H   -1.861434053003   -5.853641854995    0.000000000000
 C   -0.658064053003   -4.051971854995    0.000000000000
 H    0.293535946997   -4.587591854995    0.000000000000
 C   -3.094034053003   -4.068561854995    0.000000000000
 H   -4.037564053003   -4.618221854995    0.000000000000
 C   -0.664184053003   -2.642421854995    0.000000000000
 H    0.283275946997   -2.094351854995    0.000000000000
 C   -3.118844053003   -2.662361854995    0.000000000000
 H   -4.071444053003   -2.123471854995    0.000000000000
 C   -1.899774053003   -1.977301854995    0.000000000000
 O   -1.859924053003   -0.542031854995    0.000000000000
 H   -2.783194053003   -0.233671854995    0.000000000000
NA   -0.427314053003   -0.124531854995    1.885600000000
NA   -0.427314053003   -0.124531854995   -1.885600000000
 O    2.068847272537    0.602914800698    0.000000000000
 H    2.992126840329    0.294561322043    0.000000000000
 C    2.108702950632    2.038191538412    0.000000000000
 C    0.873105597415    2.703309331230    0.000000000000
 H   -0.074355092336    2.155240143101    0.000000000000
 C    0.866986665026    4.112856049954    0.000000000000
 H   -0.084609719835    4.648472181825    0.000000000000
 C    2.078760388544    4.823102077322    0.000000000000
 H    2.070360504646    5.914529754061    0.000000000000
 C    3.302959899859    4.129449858920    0.000000000000
 H    4.246491373851    4.679108843370    0.000000000000
 C    3.327770942836    2.723248725175    0.000000000000
 H    4.280369674671    2.184362514824    0.000000000000
