28

 C   -1.908407395183   -4.773453135149    0.000000000000
 H   -1.900007395183   -5.864883135149    0.000000000000
 C   -0.696637395183   -4.063213135149    0.000000000000
 H    0.254962604817   -4.598833135149    0.000000000000
 C   -3.132607395183   -4.079803135149    0.000000000000
 H   -4.076137395183   -4.629463135149    0.000000000000
 C   -0.702757395183   -2.653663135149    0.000000000000
 H    0.244702604817   -2.105593135149    0.000000000000
 C   -3.157417395183   -2.673603135149    0.000000000000
 H   -4.110017395183   -2.134713135149    0.000000000000
 C   -1.938347395183   -1.988543135149    0.000000000000
 O   -1.898497395183   -0.553273135149    0.000000000000
 H   -2.821767395183   -0.244913135149    0.000000000000
NA   -0.465887395183   -0.135773135149    1.885600000000
NA   -0.465887395183   -0.135773135149   -1.885600000000
 O    2.126280135185    0.619652238071    0.000000000000
 H    3.049559702977    0.311298759417    0.000000000000
 C    2.166135813280    2.054928975786    0.000000000000
 C    0.930538460063    2.720046768603    0.000000000000
 H   -0.016922229688    2.171977580475    0.000000000000
 C    0.924419527674    4.129593487328    0.000000000000
 H   -0.027176857186    4.665209619199    0.000000000000
 C    2.136193251192    4.839839514696    0.000000000000
 H    2.127793367294    5.931267191434    0.000000000000
 C    3.360392762508    4.146187296293    0.000000000000
 H    4.303924236500    4.695846280743    0.000000000000
 C    3.385203805484    2.739986162548    0.000000000000
 H    4.337802537319    2.201099952197    0.000000000000
