28

 C   -1.985554079543   -4.795935695455    0.000000000000
 H   -1.977154079543   -5.887365695455    0.000000000000
 C   -0.773784079543   -4.085695695455    0.000000000000
 H    0.177815920457   -4.621315695455    0.000000000000
 C   -3.209754079543   -4.102285695455    0.000000000000
 H   -4.153284079543   -4.651945695455    0.000000000000
 C   -0.779904079543   -2.676145695455    0.000000000000
 H    0.167555920457   -2.128075695455    0.000000000000
 C   -3.234564079543   -2.696085695455    0.000000000000
 H   -4.187164079543   -2.157195695455    0.000000000000
 C   -2.015494079543   -2.011025695455    0.000000000000
 O   -1.975644079543   -0.575755695455    0.000000000000
 H   -2.898914079543   -0.267395695455    0.000000000000
NA   -0.543034079543   -0.158255695455    1.885600000000
NA   -0.543034079543   -0.158255695455   -1.885600000000
 O    2.241145860482    0.653127112819    0.000000000000
 H    3.164425428274    0.344773634164    0.000000000000
 C    2.281001538577    2.088403850533    0.000000000000
 C    1.045404185360    2.753521643350    0.000000000000
 H    0.097943495609    2.205452455222    0.000000000000
 C    1.039285252971    4.163068362075    0.000000000000
 H    0.087688868111    4.698684493946    0.000000000000
 C    2.251058976489    4.873314389443    0.000000000000
 H    2.242659092591    5.964742066181    0.000000000000
 C    3.475258487804    4.179662171040    0.000000000000
 H    4.418789961796    4.729321155490    0.000000000000
 C    3.500069530781    2.773461037295    0.000000000000
 H    4.452668262616    2.234574826944    0.000000000000
