28

 C   -2.024127421723   -4.807176975608    0.000000000000
 H   -2.015727421723   -5.898606975608    0.000000000000
 C   -0.812357421723   -4.096936975608    0.000000000000
 H    0.139242578277   -4.632556975608    0.000000000000
 C   -3.248327421723   -4.113526975608    0.000000000000
 H   -4.191857421723   -4.663186975608    0.000000000000
 C   -0.818477421723   -2.687386975608    0.000000000000
 H    0.128982578277   -2.139316975608    0.000000000000
 C   -3.273137421723   -2.707326975608    0.000000000000
 H   -4.225737421723   -2.168436975608    0.000000000000
 C   -2.054067421723   -2.022266975608    0.000000000000
 O   -2.014217421723   -0.586996975608    0.000000000000
 H   -2.937487421723   -0.278636975608    0.000000000000
NA   -0.581607421723   -0.169496975608    1.885600000000
NA   -0.581607421723   -0.169496975608   -1.885600000000
 O    2.298578723130    0.669864550192    0.000000000000
 H    3.221858290922    0.361511071537    0.000000000000
 C    2.338434401225    2.105141287906    0.000000000000
 C    1.102837048008    2.770259080724    0.000000000000
 H    0.155376358257    2.222189892595    0.000000000000
 C    1.096718115619    4.179805799448    0.000000000000
 H    0.145121730759    4.715421931319    0.000000000000
 C    2.308491839137    4.890051826816    0.000000000000
 H    2.300091955239    5.981479503555    0.000000000000
 C    3.532691350453    4.196399608414    0.000000000000
 H    4.476222824445    4.746058592864    0.000000000000
 C    3.557502393429    2.790198474669    0.000000000000
 H    4.510101125264    2.251312264318    0.000000000000
