28

 C   -2.062700763903   -4.818418255761    0.000000000000
 H   -2.054300763903   -5.909848255761    0.000000000000
 C   -0.850930763903   -4.108178255761    0.000000000000
 H    0.100669236097   -4.643798255761    0.000000000000
 C   -3.286900763903   -4.124768255761    0.000000000000
 H   -4.230430763903   -4.674428255761    0.000000000000
 C   -0.857050763903   -2.698628255761    0.000000000000
 H    0.090409236097   -2.150558255761    0.000000000000
 C   -3.311710763903   -2.718568255761    0.000000000000
 H   -4.264310763903   -2.179678255761    0.000000000000
 C   -2.092640763903   -2.033508255761    0.000000000000
 O   -2.052790763903   -0.598238255761    0.000000000000
 H   -2.976060763903   -0.289878255761    0.000000000000
NA   -0.620180763903   -0.180738255761    1.885600000000
NA   -0.620180763903   -0.180738255761   -1.885600000000
 O    2.356011585779    0.686601987566    0.000000000000
 H    3.279291153570    0.378248508911    0.000000000000
 C    2.395867263874    2.121878725280    0.000000000000
 C    1.160269910657    2.786996518097    0.000000000000
 H    0.212809220905    2.238927329969    0.000000000000
 C    1.154150978268    4.196543236822    0.000000000000
 H    0.202554593407    4.732159368693    0.000000000000
 C    2.365924701785    4.906789264190    0.000000000000
 H    2.357524817888    5.998216940928    0.000000000000
 C    3.590124213101    4.213137045787    0.000000000000
 H    4.533655687093    4.762796030237    0.000000000000
 C    3.614935256078    2.806935912042    0.000000000000
 H    4.567533987913    2.268049701691    0.000000000000
