28

 C   -2.101274106083   -4.829659535914    0.000000000000
 H   -2.092874106083   -5.921089535914    0.000000000000
 C   -0.889504106083   -4.119419535914    0.000000000000
 H    0.062095893917   -4.655039535914    0.000000000000
 C   -3.325474106083   -4.136009535914    0.000000000000
 H   -4.269004106083   -4.685669535914    0.000000000000
 C   -0.895624106083   -2.709869535914    0.000000000000
 H    0.051835893917   -2.161799535914    0.000000000000
 C   -3.350284106083   -2.729809535914    0.000000000000
 H   -4.302884106083   -2.190919535914    0.000000000000
 C   -2.131214106083   -2.044749535914    0.000000000000
 O   -2.091364106083   -0.609479535914    0.000000000000
 H   -3.014634106083   -0.301119535914    0.000000000000
NA   -0.658754106083   -0.191979535914    1.885600000000
NA   -0.658754106083   -0.191979535914   -1.885600000000
 O    2.413444448427    0.703339424939    0.000000000000
 H    3.336724016219    0.394985946284    0.000000000000
 C    2.453300126522    2.138616162653    0.000000000000
 C    1.217702773305    2.803733955471    0.000000000000
 H    0.270242083554    2.255664767342    0.000000000000
 C    1.211583840916    4.213280674195    0.000000000000
 H    0.259987456056    4.748896806066    0.000000000000
 C    2.423357564434    4.923526701563    0.000000000000
 H    2.414957680536    6.014954378302    0.000000000000
 C    3.647557075749    4.229874483161    0.000000000000
 H    4.591088549741    4.779533467611    0.000000000000
 C    3.672368118726    2.823673349416    0.000000000000
 H    4.624966850561    2.284787139065    0.000000000000
