28

 C   -2.139847448263   -4.840900816067    0.000000000000
 H   -2.131447448263   -5.932330816067    0.000000000000
 C   -0.928077448263   -4.130660816067    0.000000000000
 H    0.023522551737   -4.666280816067    0.000000000000
 C   -3.364047448263   -4.147250816067    0.000000000000
 H   -4.307577448263   -4.696910816067    0.000000000000
 C   -0.934197448263   -2.721110816067    0.000000000000
 H    0.013262551737   -2.173040816067    0.000000000000
 C   -3.388857448263   -2.741050816067    0.000000000000
 H   -4.341457448263   -2.202160816067    0.000000000000
 C   -2.169787448263   -2.055990816067    0.000000000000
 O   -2.129937448263   -0.620720816067    0.000000000000
 H   -3.053207448263   -0.312360816067    0.000000000000
NA   -0.697327448263   -0.203220816067    1.885600000000
NA   -0.697327448263   -0.203220816067   -1.885600000000
 O    2.470877311075    0.720076862313    0.000000000000
 H    3.394156878867    0.411723383658    0.000000000000
 C    2.510732989171    2.155353600027    0.000000000000
 C    1.275135635953    2.820471392845    0.000000000000
 H    0.327674946202    2.272402204716    0.000000000000
 C    1.269016703564    4.230018111569    0.000000000000
 H    0.317420318704    4.765634243440    0.000000000000
 C    2.480790427082    4.940264138937    0.000000000000
 H    2.472390543184    6.031691815675    0.000000000000
 C    3.704989938398    4.246611920534    0.000000000000
 H    4.648521412390    4.796270904984    0.000000000000
 C    3.729800981374    2.840410786789    0.000000000000
 H    4.682399713209    2.301524576439    0.000000000000
