28

 C   -2.216994132624   -4.863383376374    0.000000000000
 H   -2.208594132624   -5.954813376374    0.000000000000
 C   -1.005224132624   -4.153143376374    0.000000000000
 H   -0.053624132624   -4.688763376374    0.000000000000
 C   -3.441194132624   -4.169733376374    0.000000000000
 H   -4.384724132624   -4.719393376374    0.000000000000
 C   -1.011344132624   -2.743593376374    0.000000000000
 H   -0.063884132624   -2.195523376374    0.000000000000
 C   -3.466004132624   -2.763533376374    0.000000000000
 H   -4.418604132624   -2.224643376374    0.000000000000
 C   -2.246934132624   -2.078473376374    0.000000000000
 O   -2.207084132624   -0.643203376374    0.000000000000
 H   -3.130354132624   -0.334843376374    0.000000000000
NA   -0.774474132624   -0.225703376374    1.885600000000
NA   -0.774474132624   -0.225703376374   -1.885600000000
 O    2.585743036372    0.753551737060    0.000000000000
 H    3.509022604164    0.445198258405    0.000000000000
 C    2.625598714467    2.188828474774    0.000000000000
 C    1.390001361250    2.853946267592    0.000000000000
 H    0.442540671499    2.305877079463    0.000000000000
 C    1.383882428861    4.263492986316    0.000000000000
 H    0.432286044001    4.799109118187    0.000000000000
 C    2.595656152379    4.973739013684    0.000000000000
 H    2.587256268481    6.065166690422    0.000000000000
 C    3.819855663694    4.280086795282    0.000000000000
 H    4.763387137686    4.829745779731    0.000000000000
 C    3.844666706671    2.873885661536    0.000000000000
 H    4.797265438506    2.334999451186    0.000000000000
