28

 C   -2.487007527884   -4.942072337446    0.000000000000
 H   -2.478607527884   -6.033502337446    0.000000000000
 C   -1.275237527884   -4.231832337446    0.000000000000
 H   -0.323637527884   -4.767452337446    0.000000000000
 C   -3.711207527884   -4.248422337446    0.000000000000
 H   -4.654737527884   -4.798082337446    0.000000000000
 C   -1.281357527884   -2.822282337446    0.000000000000
 H   -0.333897527884   -2.274212337446    0.000000000000
 C   -3.736017527884   -2.842222337446    0.000000000000
 H   -4.688617527884   -2.303332337446    0.000000000000
 C   -2.516947527884   -2.157162337446    0.000000000000
 O   -2.477097527884   -0.721892337446    0.000000000000
 H   -3.400367527884   -0.413532337446    0.000000000000
NA   -1.044487527884   -0.304392337446    1.885600000000
NA   -1.044487527884   -0.304392337446   -1.885600000000
 O    2.987773074911    0.870713798674    0.000000000000
 H    3.911052642702    0.562360320020    0.000000000000
 C    3.027628753006    2.305990536389    0.000000000000
 C    1.792031399788    2.971108329206    0.000000000000
 H    0.844570710037    2.423039141078    0.000000000000
 C    1.785912467400    4.380655047931    0.000000000000
 H    0.834316082539    4.916271179802    0.000000000000
 C    2.997686190917    5.090901075299    0.000000000000
 H    2.989286307020    6.182328752037    0.000000000000
 C    4.221885702233    4.397248856896    0.000000000000
 H    5.165417176225    4.946907841346    0.000000000000
 C    4.246696745210    2.991047723151    0.000000000000
 H    5.199295477045    2.452161512800    0.000000000000
