28

 C   -2.564154212245   -4.964554897752    0.000000000000
 H   -2.555754212245   -6.055984897752    0.000000000000
 C   -1.352384212245   -4.254314897752    0.000000000000
 H   -0.400784212245   -4.789934897752    0.000000000000
 C   -3.788354212245   -4.270904897752    0.000000000000
 H   -4.731884212245   -4.820564897752    0.000000000000
 C   -1.358504212245   -2.844764897752    0.000000000000
 H   -0.411044212245   -2.296694897752    0.000000000000
 C   -3.813164212245   -2.864704897752    0.000000000000
 H   -4.765764212245   -2.325814897752    0.000000000000
 C   -2.594094212245   -2.179644897752    0.000000000000
 O   -2.554244212245   -0.744374897752    0.000000000000
 H   -3.477514212245   -0.436014897752    0.000000000000
NA   -1.121634212245   -0.326874897752    1.885600000000
NA   -1.121634212245   -0.326874897752   -1.885600000000
 O    3.102638800207    0.904188673421    0.000000000000
 H    4.025918367999    0.595835194767    0.000000000000
 C    3.142494478302    2.339465411136    0.000000000000
 C    1.906897125085    3.004583203953    0.000000000000
 H    0.959436435334    2.456514015825    0.000000000000
 C    1.900778192696    4.414129922678    0.000000000000
 H    0.949181807836    4.949746054549    0.000000000000
 C    3.112551916214    5.124375950046    0.000000000000
 H    3.104152032316    6.215803626784    0.000000000000
 C    4.336751427530    4.430723731643    0.000000000000
 H    5.280282901521    4.980382716093    0.000000000000
 C    4.361562470506    3.024522597898    0.000000000000
 H    5.314161202341    2.485636387547    0.000000000000
