28

 C   -2.602727554425   -4.975796177905    0.000000000000
 H   -2.594327554425   -6.067226177905    0.000000000000
 C   -1.390957554425   -4.265556177905    0.000000000000
 H   -0.439357554425   -4.801176177905    0.000000000000
 C   -3.826927554425   -4.282146177905    0.000000000000
 H   -4.770457554425   -4.831806177905    0.000000000000
 C   -1.397077554425   -2.856006177905    0.000000000000
 H   -0.449617554425   -2.307936177905    0.000000000000
 C   -3.851737554425   -2.875946177905    0.000000000000
 H   -4.804337554425   -2.337056177905    0.000000000000
 C   -2.632667554425   -2.190886177905    0.000000000000
 O   -2.592817554425   -0.755616177905    0.000000000000
 H   -3.516087554425   -0.447256177905    0.000000000000
NA   -1.160207554425   -0.338116177905    1.885600000000
NA   -1.160207554425   -0.338116177905   -1.885600000000
 O    3.160071662856    0.920926110795    0.000000000000
 H    4.083351230647    0.612572632140    0.000000000000
 C    3.199927340951    2.356202848509    0.000000000000
 C    1.964329987734    3.021320641327    0.000000000000
 H    1.016869297982    2.473251453198    0.000000000000
 C    1.958211055345    4.430867360051    0.000000000000
 H    1.006614670484    4.966483491922    0.000000000000
 C    3.169984778862    5.141113387419    0.000000000000
 H    3.161584894965    6.232541064158    0.000000000000
 C    4.394184290178    4.447461169017    0.000000000000
 H    5.337715764170    4.997120153467    0.000000000000
 C    4.418995333155    3.041260035272    0.000000000000
 H    5.371594064990    2.502373824921    0.000000000000
