28

 C   -2.679874238785   -4.998278738211    0.000000000000
 H   -2.671474238785   -6.089708738211    0.000000000000
 C   -1.468104238785   -4.288038738211    0.000000000000
 H   -0.516504238785   -4.823658738211    0.000000000000
 C   -3.904074238785   -4.304628738211    0.000000000000
 H   -4.847604238785   -4.854288738211    0.000000000000
 C   -1.474224238785   -2.878488738211    0.000000000000
 H   -0.526764238785   -2.330418738211    0.000000000000
 C   -3.928884238785   -2.898428738211    0.000000000000
 H   -4.881484238785   -2.359538738211    0.000000000000
 C   -2.709814238785   -2.213368738211    0.000000000000
 O   -2.669964238785   -0.778098738211    0.000000000000
 H   -3.593234238785   -0.469738738211    0.000000000000
NA   -1.237354238785   -0.360598738211    1.885600000000
NA   -1.237354238785   -0.360598738211   -1.885600000000
 O    3.274937388152    0.954400985542    0.000000000000
 H    4.198216955944    0.646047506887    0.000000000000
 C    3.314793066247    2.389677723256    0.000000000000
 C    2.079195713030    3.054795516074    0.000000000000
 H    1.131735023279    2.506726327945    0.000000000000
 C    2.073076780641    4.464342234798    0.000000000000
 H    1.121480395781    4.999958366669    0.000000000000
 C    3.284850504159    5.174588262166    0.000000000000
 H    3.276450620261    6.266015938905    0.000000000000
 C    4.509050015475    4.480936043764    0.000000000000
 H    5.452581489467    5.030595028214    0.000000000000
 C    4.533861058451    3.074734910019    0.000000000000
 H    5.486459790286    2.535848699668    0.000000000000
