28

 C   -2.834167607505   -5.043243858824    0.000000000000
 H   -2.825767607505   -6.134673858824    0.000000000000
 C   -1.622397607505   -4.333003858824    0.000000000000
 H   -0.670797607505   -4.868623858824    0.000000000000
 C   -4.058367607505   -4.349593858824    0.000000000000
 H   -5.001897607505   -4.899253858824    0.000000000000
 C   -1.628517607505   -2.923453858824    0.000000000000
 H   -0.681057607505   -2.375383858824    0.000000000000
 C   -4.083177607505   -2.943393858824    0.000000000000
 H   -5.035777607505   -2.404503858824    0.000000000000
 C   -2.864107607505   -2.258333858824    0.000000000000
 O   -2.824257607505   -0.823063858824    0.000000000000
 H   -3.747527607505   -0.514703858824    0.000000000000
NA   -1.391647607505   -0.405563858824    1.885600000000
NA   -1.391647607505   -0.405563858824   -1.885600000000
 O    3.504668838746    1.021350735036    0.000000000000
 H    4.427948406537    0.712997256381    0.000000000000
 C    3.544524516841    2.456627472750    0.000000000000
 C    2.308927163624    3.121745265568    0.000000000000
 H    1.361466473872    2.573676077439    0.000000000000
 C    2.302808231235    4.531291984292    0.000000000000
 H    1.351211846374    5.066908116163    0.000000000000
 C    3.514581954752    5.241538011660    0.000000000000
 H    3.506182070855    6.332965688399    0.000000000000
 C    4.738781466068    4.547885793258    0.000000000000
 H    5.682312940060    5.097544777708    0.000000000000
 C    4.763592509045    3.141684659513    0.000000000000
 H    5.716191240880    2.602798449162    0.000000000000
