28

 C   -2.988460976226   -5.088208979437    0.000000000000
 H   -2.980060976226   -6.179638979437    0.000000000000
 C   -1.776690976226   -4.377968979437    0.000000000000
 H   -0.825090976226   -4.913588979437    0.000000000000
 C   -4.212660976226   -4.394558979437    0.000000000000
 H   -5.156190976226   -4.944218979437    0.000000000000
 C   -1.782810976226   -2.968418979437    0.000000000000
 H   -0.835350976226   -2.420348979437    0.000000000000
 C   -4.237470976226   -2.988358979437    0.000000000000
 H   -5.190070976226   -2.449468979437    0.000000000000
 C   -3.018400976226   -2.303298979437    0.000000000000
 O   -2.978550976226   -0.868028979437    0.000000000000
 H   -3.901820976226   -0.559668979437    0.000000000000
NA   -1.545940976226   -0.450528979437    1.885600000000
NA   -1.545940976226   -0.450528979437   -1.885600000000
 O    3.734400289339    1.088300484530    0.000000000000
 H    4.657679857131    0.779947005876    0.000000000000
 C    3.774255967434    2.523577222244    0.000000000000
 C    2.538658614217    3.188695015062    0.000000000000
 H    1.591197924466    2.640625826933    0.000000000000
 C    2.532539681828    4.598241733786    0.000000000000
 H    1.580943296968    5.133857865658    0.000000000000
 C    3.744313405346    5.308487761154    0.000000000000
 H    3.735913521448    6.399915437893    0.000000000000
 C    4.968512916661    4.614835542752    0.000000000000
 H    5.912044390653    5.164494527202    0.000000000000
 C    4.993323959638    3.208634409007    0.000000000000
 H    5.945922691473    2.669748198656    0.000000000000
