28

 C   -3.104181002766   -5.121932819896    0.000000000000
 H   -3.095781002766   -6.213362819896    0.000000000000
 C   -1.892411002766   -4.411692819896    0.000000000000
 H   -0.940811002766   -4.947312819896    0.000000000000
 C   -4.328381002766   -4.428282819896    0.000000000000
 H   -5.271911002766   -4.977942819896    0.000000000000
 C   -1.898531002766   -3.002142819896    0.000000000000
 H   -0.951071002766   -2.454072819896    0.000000000000
 C   -4.353191002766   -3.022082819896    0.000000000000
 H   -5.305791002766   -2.483192819896    0.000000000000
 C   -3.134121002766   -2.337022819896    0.000000000000
 O   -3.094271002766   -0.901752819896    0.000000000000
 H   -4.017541002766   -0.593392819896    0.000000000000
NA   -1.661661002766   -0.484252819896    1.885600000000
NA   -1.661661002766   -0.484252819896   -1.885600000000
 O    3.906698877284    1.138512796651    0.000000000000
 H    4.829978445076    0.830159317996    0.000000000000
 C    3.946554555379    2.573789534365    0.000000000000
 C    2.710957202162    3.238907327183    0.000000000000
 H    1.763496512411    2.690838139054    0.000000000000
 C    2.704838269773    4.648454045907    0.000000000000
 H    1.753241884913    5.184070177778    0.000000000000
 C    3.916611993291    5.358700073275    0.000000000000
 H    3.908212109393    6.450127750013    0.000000000000
 C    5.140811504606    4.665047854873    0.000000000000
 H    6.084342978598    5.214706839323    0.000000000000
 C    5.165622547583    3.258846721127    0.000000000000
 H    6.118221279418    2.719960510777    0.000000000000
