28

 C   -3.258474371486   -5.166897940508    0.000000000000
 H   -3.250074371486   -6.258327940508    0.000000000000
 C   -2.046704371486   -4.456657940508    0.000000000000
 H   -1.095104371486   -4.992277940508    0.000000000000
 C   -4.482674371486   -4.473247940509    0.000000000000
 H   -5.426204371486   -5.022907940508    0.000000000000
 C   -2.052824371486   -3.047107940508    0.000000000000
 H   -1.105364371486   -2.499037940508    0.000000000000
 C   -4.507484371486   -3.067047940508    0.000000000000
 H   -5.460084371486   -2.528157940508    0.000000000000
 C   -3.288414371486   -2.381987940508    0.000000000000
 O   -3.248564371486   -0.946717940508    0.000000000000
 H   -4.171834371486   -0.638357940508    0.000000000000
NA   -1.815954371486   -0.529217940508    1.885600000000
NA   -1.815954371486   -0.529217940508   -1.885600000000
 O    4.136430327878    1.205462546145    0.000000000000
 H    5.059709895669    0.897109067490    0.000000000000
 C    4.176286005973    2.640739283859    0.000000000000
 C    2.940688652756    3.305857076677    0.000000000000
 H    1.993227963004    2.757787888548    0.000000000000
 C    2.934569720367    4.715403795401    0.000000000000
 H    1.982973335506    5.251019927272    0.000000000000
 C    4.146343443884    5.425649822769    0.000000000000
 H    4.137943559987    6.517077499507    0.000000000000
 C    5.370542955200    4.731997604367    0.000000000000
 H    6.314074429192    5.281656588817    0.000000000000
 C    5.395353998177    3.325796470621    0.000000000000
 H    6.347952730012    2.786910260271    0.000000000000
