28

 C   -3.335621055847   -5.189380500815    0.000000000000
 H   -3.327221055847   -6.280810500815    0.000000000000
 C   -2.123851055847   -4.479140500815    0.000000000000
 H   -1.172251055847   -5.014760500815    0.000000000000
 C   -4.559821055847   -4.495730500815    0.000000000000
 H   -5.503351055847   -5.045390500815    0.000000000000
 C   -2.129971055847   -3.069590500815    0.000000000000
 H   -1.182511055847   -2.521520500815    0.000000000000
 C   -4.584631055847   -3.089530500815    0.000000000000
 H   -5.537231055847   -2.550640500815    0.000000000000
 C   -3.365561055847   -2.404470500815    0.000000000000
 O   -3.325711055847   -0.969200500815    0.000000000000
 H   -4.248981055847   -0.660840500815    0.000000000000
NA   -1.893101055847   -0.551700500815    1.885600000000
NA   -1.893101055847   -0.551700500815   -1.885600000000
 O    4.251296053174    1.238937420892    0.000000000000
 H    5.174575620966    0.930583942237    0.000000000000
 C    4.291151731269    2.674214158606    0.000000000000
 C    3.055554378052    3.339331951424    0.000000000000
 H    2.108093688301    2.791262763295    0.000000000000
 C    3.049435445663    4.748878670148    0.000000000000
 H    2.097839060803    5.284494802019    0.000000000000
 C    4.261209169181    5.459124697516    0.000000000000
 H    4.252809285283    6.550552374255    0.000000000000
 C    5.485408680497    4.765472479114    0.000000000000
 H    6.428940154489    5.315131463564    0.000000000000
 C    5.510219723473    3.359271345369    0.000000000000
 H    6.462818455308    2.820385135018    0.000000000000
