28

 C   -3.489914424567   -5.234345621427    0.000000000000
 H   -3.481514424567   -6.325775621427    0.000000000000
 C   -2.278144424567   -4.524105621427    0.000000000000
 H   -1.326544424567   -5.059725621427    0.000000000000
 C   -4.714114424567   -4.540695621427    0.000000000000
 H   -5.657644424567   -5.090355621427    0.000000000000
 C   -2.284264424567   -3.114555621427    0.000000000000
 H   -1.336804424567   -2.566485621427    0.000000000000
 C   -4.738924424567   -3.134495621427    0.000000000000
 H   -5.691524424567   -2.595605621427    0.000000000000
 C   -3.519854424567   -2.449435621427    0.000000000000
 O   -3.480004424567   -1.014165621427    0.000000000000
 H   -4.403274424567   -0.705805621427    0.000000000000
NA   -2.047394424567   -0.596665621427    1.885600000000
NA   -2.047394424567   -0.596665621427   -1.885600000000
 O    4.481027503768    1.305887170386    0.000000000000
 H    5.404307071559    0.997533691731    0.000000000000
 C    4.520883181863    2.741163908100    0.000000000000
 C    3.285285828646    3.406281700918    0.000000000000
 H    2.337825138894    2.858212512789    0.000000000000
 C    3.279166896257    4.815828419642    0.000000000000
 H    2.327570511396    5.351444551513    0.000000000000
 C    4.490940619774    5.526074447010    0.000000000000
 H    4.482540735877    6.617502123749    0.000000000000
 C    5.715140131090    4.832422228608    0.000000000000
 H    6.658671605082    5.382081213058    0.000000000000
 C    5.739951174067    3.426221094863    0.000000000000
 H    6.692549905902    2.887334884512    0.000000000000
