28

 C   -3.605634451107   -5.268069461887    0.000000000000
 H   -3.597234451107   -6.359499461887    0.000000000000
 C   -2.393864451107   -4.557829461887    0.000000000000
 H   -1.442264451107   -5.093449461887    0.000000000000
 C   -4.829834451107   -4.574419461887    0.000000000000
 H   -5.773364451107   -5.124079461887    0.000000000000
 C   -2.399984451107   -3.148279461887    0.000000000000
 H   -1.452524451107   -2.600209461887    0.000000000000
 C   -4.854644451107   -3.168219461887    0.000000000000
 H   -5.807244451107   -2.629329461887    0.000000000000
 C   -3.635574451107   -2.483159461887    0.000000000000
 O   -3.595724451107   -1.047889461887    0.000000000000
 H   -4.518994451107   -0.739529461887    0.000000000000
NA   -2.163114451107   -0.630389461887    1.885600000000
NA   -2.163114451107   -0.630389461887   -1.885600000000
 O    4.653326091713    1.356099482507    0.000000000000
 H    5.576605659505    1.047746003852    0.000000000000
 C    4.693181769808    2.791376220221    0.000000000000
 C    3.457584416591    3.456494013038    0.000000000000
 H    2.510123726839    2.908424824910    0.000000000000
 C    3.451465484202    4.866040731763    0.000000000000
 H    2.499869099341    5.401656863634    0.000000000000
 C    4.663239207719    5.576286759131    0.000000000000
 H    4.654839323822    6.667714435869    0.000000000000
 C    5.887438719035    4.882634540728    0.000000000000
 H    6.830970193027    5.432293525178    0.000000000000
 C    5.912249762012    3.476433406983    0.000000000000
 H    6.864848493847    2.937547196632    0.000000000000
