28

 C   -3.644207793287   -5.279310742040    0.000000000000
 H   -3.635807793287   -6.370740742040    0.000000000000
 C   -2.432437793287   -4.569070742040    0.000000000000
 H   -1.480837793287   -5.104690742040    0.000000000000
 C   -4.868407793287   -4.585660742040    0.000000000000
 H   -5.811937793287   -5.135320742040    0.000000000000
 C   -2.438557793287   -3.159520742040    0.000000000000
 H   -1.491097793287   -2.611450742040    0.000000000000
 C   -4.893217793287   -3.179460742040    0.000000000000
 H   -5.845817793287   -2.640570742040    0.000000000000
 C   -3.674147793287   -2.494400742040    0.000000000000
 O   -3.634297793287   -1.059130742040    0.000000000000
 H   -4.557567793287   -0.750770742040    0.000000000000
NA   -2.201687793287   -0.641630742040    1.885600000000
NA   -2.201687793287   -0.641630742040   -1.885600000000
 O    4.710758954361    1.372836919880    0.000000000000
 H    5.634038522153    1.064483441226    0.000000000000
 C    4.750614632456    2.808113657594    0.000000000000
 C    3.515017279239    3.473231450412    0.000000000000
 H    2.567556589488    2.925162262283    0.000000000000
 C    3.508898346850    4.882778169136    0.000000000000
 H    2.557301961990    5.418394301008    0.000000000000
 C    4.720672070368    5.593024196504    0.000000000000
 H    4.712272186470    6.684451873243    0.000000000000
 C    5.944871581683    4.899371978102    0.000000000000
 H    6.888403055675    5.449030962552    0.000000000000
 C    5.969682624660    3.493170844357    0.000000000000
 H    6.922281356495    2.954284634006    0.000000000000
