28

 C   -3.682781135468   -5.290552022193    0.000000000000
 H   -3.674381135468   -6.381982022193    0.000000000000
 C   -2.471011135468   -4.580312022193    0.000000000000
 H   -1.519411135468   -5.115932022193    0.000000000000
 C   -4.906981135468   -4.596902022193    0.000000000000
 H   -5.850511135468   -5.146562022193    0.000000000000
 C   -2.477131135468   -3.170762022193    0.000000000000
 H   -1.529671135468   -2.622692022193    0.000000000000
 C   -4.931791135468   -3.190702022193    0.000000000000
 H   -5.884391135468   -2.651812022193    0.000000000000
 C   -3.712721135468   -2.505642022193    0.000000000000
 O   -3.672871135468   -1.070372022193    0.000000000000
 H   -4.596141135468   -0.762012022193    0.000000000000
NA   -2.240261135468   -0.652872022193    1.885600000000
NA   -2.240261135468   -0.652872022193   -1.885600000000
 O    4.768191817010    1.389574357254    0.000000000000
 H    5.691471384801    1.081220878599    0.000000000000
 C    4.808047495105    2.824851094968    0.000000000000
 C    3.572450141887    3.489968887786    0.000000000000
 H    2.624989452136    2.941899699657    0.000000000000
 C    3.566331209498    4.899515606510    0.000000000000
 H    2.614734824638    5.435131738381    0.000000000000
 C    4.778104933016    5.609761633878    0.000000000000
 H    4.769705049119    6.701189310616    0.000000000000
 C    6.002304444332    4.916109415475    0.000000000000
 H    6.945835918324    5.465768399925    0.000000000000
 C    6.027115487308    3.509908281730    0.000000000000
 H    6.979714219144    2.971022071380    0.000000000000
