28

 C   -3.759927819828   -5.313034582499    0.000000000000
 H   -3.751527819828   -6.404464582499    0.000000000000
 C   -2.548157819828   -4.602794582499    0.000000000000
 H   -1.596557819828   -5.138414582499    0.000000000000
 C   -4.984127819828   -4.619384582499    0.000000000000
 H   -5.927657819828   -5.169044582499    0.000000000000
 C   -2.554277819828   -3.193244582499    0.000000000000
 H   -1.606817819828   -2.645174582499    0.000000000000
 C   -5.008937819828   -3.213184582499    0.000000000000
 H   -5.961537819828   -2.674294582499    0.000000000000
 C   -3.789867819828   -2.528124582499    0.000000000000
 O   -3.750017819828   -1.092854582499    0.000000000000
 H   -4.673287819828   -0.784494582499    0.000000000000
NA   -2.317407819828   -0.675354582499    1.885600000000
NA   -2.317407819828   -0.675354582499   -1.885600000000
 O    4.883057542306    1.423049232001    0.000000000000
 H    5.806337110098    1.114695753346    0.000000000000
 C    4.922913220401    2.858325969715    0.000000000000
 C    3.687315867184    3.523443762533    0.000000000000
 H    2.739855177433    2.975374574404    0.000000000000
 C    3.681196934795    4.932990481257    0.000000000000
 H    2.729600549935    5.468606613128    0.000000000000
 C    4.892970658313    5.643236508625    0.000000000000
 H    4.884570774415    6.734664185363    0.000000000000
 C    6.117170169628    4.949584290223    0.000000000000
 H    7.060701643620    5.499243274672    0.000000000000
 C    6.141981212605    3.543383156477    0.000000000000
 H    7.094579944440    3.004496946127    0.000000000000
