28

 C   -4.068514557269   -5.402964823724    0.000000000000
 H   -4.060114557269   -6.494394823724    0.000000000000
 C   -2.856744557269   -4.692724823724    0.000000000000
 H   -1.905144557269   -5.228344823724    0.000000000000
 C   -5.292714557269   -4.709314823724    0.000000000000
 H   -6.236244557269   -5.258974823724    0.000000000000
 C   -2.862864557269   -3.283174823724    0.000000000000
 H   -1.915404557269   -2.735104823724    0.000000000000
 C   -5.317524557269   -3.303114823724    0.000000000000
 H   -6.270124557269   -2.764224823724    0.000000000000
 C   -4.098454557269   -2.618054823724    0.000000000000
 O   -4.058604557269   -1.182784823724    0.000000000000
 H   -4.981874557269   -0.874424823724    0.000000000000
NA   -2.625994557269   -0.765284823724    1.885600000000
NA   -2.625994557269   -0.765284823724   -1.885600000000
 O    5.342520443493    1.556948730989    0.000000000000
 H    6.265800011285    1.248595252334    0.000000000000
 C    5.382376121588    2.992225468703    0.000000000000
 C    4.146778768371    3.657343261521    0.000000000000
 H    3.199318078620    3.109274073392    0.000000000000
 C    4.140659835982    5.066889980245    0.000000000000
 H    3.189063451122    5.602506112116    0.000000000000
 C    5.352433559500    5.777136007613    0.000000000000
 H    5.344033675602    6.868563684352    0.000000000000
 C    6.576633070815    5.083483789211    0.000000000000
 H    7.520164544807    5.633142773661    0.000000000000
 C    6.601444113792    3.677282655466    0.000000000000
 H    7.554042845627    3.138396445115    0.000000000000
