28

 C   -4.107087899449   -5.414206103878    0.000000000000
 H   -4.098687899449   -6.505636103878    0.000000000000
 C   -2.895317899449   -4.703966103878    0.000000000000
 H   -1.943717899449   -5.239586103878    0.000000000000
 C   -5.331287899449   -4.720556103878    0.000000000000
 H   -6.274817899449   -5.270216103878    0.000000000000
 C   -2.901437899449   -3.294416103878    0.000000000000
 H   -1.953977899449   -2.746346103878    0.000000000000
 C   -5.356097899449   -3.314356103878    0.000000000000
 H   -6.308697899449   -2.775466103878    0.000000000000
 C   -4.137027899449   -2.629296103878    0.000000000000
 O   -4.097177899449   -1.194026103878    0.000000000000
 H   -5.020447899449   -0.885666103878    0.000000000000
NA   -2.664567899449   -0.776526103878    1.885600000000
NA   -2.664567899449   -0.776526103878   -1.885600000000
 O    5.399953306141    1.573686168362    0.000000000000
 H    6.323232873933    1.265332689708    0.000000000000
 C    5.439808984236    3.008962906077    0.000000000000
 C    4.204211631019    3.674080698894    0.000000000000
 H    3.256750941268    3.126011510766    0.000000000000
 C    4.198092698630    5.083627417619    0.000000000000
 H    3.246496313770    5.619243549490    0.000000000000
 C    5.409866422148    5.793873444987    0.000000000000
 H    5.401466538250    6.885301121725    0.000000000000
 C    6.634065933464    5.100221226584    0.000000000000
 H    7.577597407456    5.649880211034    0.000000000000
 C    6.658876976440    3.694020092839    0.000000000000
 H    7.611475708275    3.155133882488    0.000000000000
