28

 C   -4.377101294709   -5.492895064950    0.000000000000
 H   -4.368701294709   -6.584325064950    0.000000000000
 C   -3.165331294709   -4.782655064950    0.000000000000
 H   -2.213731294709   -5.318275064950    0.000000000000
 C   -5.601301294709   -4.799245064950    0.000000000000
 H   -6.544831294709   -5.348905064950    0.000000000000
 C   -3.171451294709   -3.373105064950    0.000000000000
 H   -2.223991294709   -2.825035064950    0.000000000000
 C   -5.626111294709   -3.393045064950    0.000000000000
 H   -6.578711294709   -2.854155064950    0.000000000000
 C   -4.407041294709   -2.707985064950    0.000000000000
 O   -4.367191294709   -1.272715064950    0.000000000000
 H   -5.290461294709   -0.964355064950    0.000000000000
NA   -2.934581294709   -0.855215064950    1.885600000000
NA   -2.934581294709   -0.855215064950   -1.885600000000
 O    5.801983344680    1.690848229977    0.000000000000
 H    6.725262912472    1.382494751323    0.000000000000
 C    5.841839022775    3.126124967691    0.000000000000
 C    4.606241669558    3.791242760509    0.000000000000
 H    3.658780979806    3.243173572380    0.000000000000
 C    4.600122737169    5.200789479233    0.000000000000
 H    3.648526352308    5.736405611105    0.000000000000
 C    5.811896460686    5.911035506601    0.000000000000
 H    5.803496576789    7.002463183340    0.000000000000
 C    7.036095972002    5.217383288199    0.000000000000
 H    7.979627445994    5.767042272649    0.000000000000
 C    7.060907014979    3.811182154454    0.000000000000
 H    8.013505746814    3.272295944103    0.000000000000
