28

 C   -4.415674636889   -5.504136345103    0.000000000000
 H   -4.407274636889   -6.595566345103    0.000000000000
 C   -3.203904636889   -4.793896345103    0.000000000000
 H   -2.252304636889   -5.329516345103    0.000000000000
 C   -5.639874636889   -4.810486345103    0.000000000000
 H   -6.583404636889   -5.360146345103    0.000000000000
 C   -3.210024636889   -3.384346345103    0.000000000000
 H   -2.262564636889   -2.836276345103    0.000000000000
 C   -5.664684636889   -3.404286345103    0.000000000000
 H   -6.617284636889   -2.865396345103    0.000000000000
 C   -4.445614636889   -2.719226345103    0.000000000000
 O   -4.405764636889   -1.283956345103    0.000000000000
 H   -5.329034636889   -0.975596345103    0.000000000000
NA   -2.973154636889   -0.866456345103    1.885600000000
NA   -2.973154636889   -0.866456345103   -1.885600000000
 O    5.859416207328    1.707585667351    0.000000000000
 H    6.782695775120    1.399232188696    0.000000000000
 C    5.899271885423    3.142862405065    0.000000000000
 C    4.663674532206    3.807980197883    0.000000000000
 H    3.716213842455    3.259911009754    0.000000000000
 C    4.657555599817    5.217526916607    0.000000000000
 H    3.705959214957    5.753143048478    0.000000000000
 C    5.869329323335    5.927772943975    0.000000000000
 H    5.860929439437    7.019200620713    0.000000000000
 C    7.093528834650    5.234120725572    0.000000000000
 H    8.037060308642    5.783779710022    0.000000000000
 C    7.118339877627    3.827919591827    0.000000000000
 H    8.070938609462    3.289033381477    0.000000000000
