28

 C   -4.492821321250   -5.526618905409    0.000000000000
 H   -4.484421321250   -6.618048905409    0.000000000000
 C   -3.281051321250   -4.816378905409    0.000000000000
 H   -2.329451321250   -5.351998905409    0.000000000000
 C   -5.717021321250   -4.832968905409    0.000000000000
 H   -6.660551321250   -5.382628905409    0.000000000000
 C   -3.287171321250   -3.406828905409    0.000000000000
 H   -2.339711321250   -2.858758905409    0.000000000000
 C   -5.741831321250   -3.426768905409    0.000000000000
 H   -6.694431321250   -2.887878905409    0.000000000000
 C   -4.522761321250   -2.741708905409    0.000000000000
 O   -4.482911321250   -1.306438905409    0.000000000000
 H   -5.406181321250   -0.998078905409    0.000000000000
NA   -3.050301321250   -0.888938905409    1.885600000000
NA   -3.050301321250   -0.888938905409   -1.885600000000
 O    5.974281932625    1.741060542098    0.000000000000
 H    6.897561500417    1.432707063443    0.000000000000
 C    6.014137610720    3.176337279812    0.000000000000
 C    4.778540257503    3.841455072630    0.000000000000
 H    3.831079567752    3.293385884501    0.000000000000
 C    4.772421325114    5.251001791354    0.000000000000
 H    3.820824940253    5.786617923225    0.000000000000
 C    5.984195048631    5.961247818722    0.000000000000
 H    5.975795164734    7.052675495460    0.000000000000
 C    7.208394559947    5.267595600320    0.000000000000
 H    8.151926033939    5.817254584769    0.000000000000
 C    7.233205602924    3.861394466574    0.000000000000
 H    8.185804334759    3.322508256224    0.000000000000
