28

 C   -4.531394663430   -5.537860185562    0.000000000000
 H   -4.522994663430   -6.629290185562    0.000000000000
 C   -3.319624663430   -4.827620185562    0.000000000000
 H   -2.368024663430   -5.363240185562    0.000000000000
 C   -5.755594663430   -4.844210185562    0.000000000000
 H   -6.699124663430   -5.393870185562    0.000000000000
 C   -3.325744663430   -3.418070185562    0.000000000000
 H   -2.378284663430   -2.870000185562    0.000000000000
 C   -5.780404663430   -3.438010185562    0.000000000000
 H   -6.733004663430   -2.899120185562    0.000000000000
 C   -4.561334663430   -2.752950185562    0.000000000000
 O   -4.521484663430   -1.317680185562    0.000000000000
 H   -5.444754663430   -1.009320185562    0.000000000000
NA   -3.088874663430   -0.900180185562    1.885600000000
NA   -3.088874663430   -0.900180185562   -1.885600000000
 O    6.031714795273    1.757797979471    0.000000000000
 H    6.954994363065    1.449444500817    0.000000000000
 C    6.071570473368    3.193074717185    0.000000000000
 C    4.835973120151    3.858192510003    0.000000000000
 H    3.888512430400    3.310123321874    0.000000000000
 C    4.829854187762    5.267739228727    0.000000000000
 H    3.878257802902    5.803355360599    0.000000000000
 C    6.041627911280    5.977985256095    0.000000000000
 H    6.033228027382    7.069412932834    0.000000000000
 C    7.265827422595    5.284333037693    0.000000000000
 H    8.209358896587    5.833992022143    0.000000000000
 C    7.290638465572    3.878131903948    0.000000000000
 H    8.243237197407    3.339245693597    0.000000000000
