14

 P    0.026718734360   -0.035734469079    0.014278447093
 O   -0.560281265640    1.014265530921    0.969278447093
 O   -0.239281265640    0.012265530921   -1.497721552907
 O    1.689718734360   -0.209734469079    0.301278447093
 O   -0.288281265640   -1.593734469079    0.606278447093
 C    2.426718734360    0.955265530921   -0.075721552907
 H    2.095718734360    1.838265530921    0.500278447093
 H    2.311718734360    1.166265530921   -1.153721552907
 H    3.486718734360    0.753265530921    0.144278447093
 C   -1.679281265640   -1.916734469079    0.556278447093
 H   -2.057281265640   -1.889734469079   -0.481721552907
 H   -2.272281265640   -1.217734469079    1.172278447093
 H   -1.789281265640   -2.936734469079    0.956278447093
 K   -0.544429002666    0.702597716819   -0.344407830535
