14

 P    0.067436249754   -0.088370678936    0.039849438772
 O   -0.519563750246    0.961629321064    0.994849438772
 O   -0.198563750246   -0.040370678936   -1.472150561228
 O    1.730436249754   -0.262370678936    0.326849438772
 O   -0.247563750246   -1.646370678936    0.631849438772
 C    2.467436249754    0.902629321064   -0.050150561228
 H    2.136436249754    1.785629321064    0.525849438772
 H    2.352436249754    1.113629321064   -1.128150561228
 H    3.527436249754    0.700629321064    0.169849438772
 C   -1.638563750246   -1.969370678936    0.581849438772
 H   -2.016563750246   -1.942370678936   -0.456150561228
 H   -2.231563750246   -1.270370678936    1.197849438772
 H   -1.748563750246   -2.989370678936    0.981849438772
 K   -0.675055808379    0.871461162731   -0.426442722144
