14

 P    0.148871280543   -0.193643098650    0.090991422130
 O   -0.438128719457    0.856356901350    1.045991422130
 O   -0.117128719457   -0.145643098650   -1.421008577870
 O    1.811871280543   -0.367643098650    0.377991422130
 O   -0.166128719457   -1.751643098650    0.682991422130
 C    2.548871280543    0.797356901350    0.000991422130
 H    2.217871280543    1.680356901350    0.576991422130
 H    2.433871280543    1.008356901350   -1.077008577870
 H    3.608871280543    0.595356901350    0.220991422130
 C   -1.557128719457   -2.074643098650    0.632991422130
 H   -1.935128719457   -2.047643098650   -0.405008577870
 H   -2.150128719457   -1.375643098650    1.248991422130
 H   -1.667128719457   -3.094643098650    1.032991422130
 K   -0.936309419805    1.209188054555   -0.590512505362
