14

 P    0.176016290806   -0.228733905222    0.108038749916
 O   -0.410983709194    0.821266094778    1.063038749916
 O   -0.089983709194   -0.180733905222   -1.403961250084
 O    1.839016290806   -0.402733905222    0.395038749916
 O   -0.138983709194   -1.786733905222    0.700038749916
 C    2.576016290806    0.762266094778    0.018038749916
 H    2.245016290806    1.645266094778    0.594038749916
 H    2.461016290806    0.973266094778   -1.059961250084
 H    3.636016290806    0.560266094778    0.238038749916
 C   -1.529983709194   -2.109733905222    0.650038749916
 H   -1.907983709194   -2.082733905222   -0.387961250084
 H   -2.122983709194   -1.410733905222    1.266038749916
 H   -1.639983709194   -3.129733905222    1.050038749916
 K   -1.023393956947    1.321763685163   -0.645202433102
