14

 P    0.189588795937   -0.246279308507    0.116562413809
 O   -0.397411204063    0.803720691493    1.071562413809
 O   -0.076411204063   -0.198279308507   -1.395437586191
 O    1.852588795937   -0.420279308507    0.403562413809
 O   -0.125411204063   -1.804279308507    0.708562413809
 C    2.589588795937    0.744720691493    0.026562413809
 H    2.258588795937    1.627720691493    0.602562413809
 H    2.474588795937    0.955720691493   -1.051437586191
 H    3.649588795937    0.542720691493    0.246562413809
 C   -1.516411204063   -2.127279308507    0.658562413809
 H   -1.894411204063   -2.100279308507   -0.379437586191
 H   -2.109411204063   -1.428279308507    1.274562413809
 H   -1.626411204063   -3.147279308507    1.058562413809
 K   -1.066936225519    1.378051500468   -0.672547396971
