14

 P    0.216733806200   -0.281370115079    0.133609741596
 O   -0.370266193800    0.768629884921    1.088609741596
 O   -0.049266193800   -0.233370115079   -1.378390258404
 O    1.879733806200   -0.455370115079    0.420609741596
 O   -0.098266193800   -1.839370115079    0.725609741596
 C    2.616733806200    0.709629884921    0.043609741596
 H    2.285733806200    1.592629884921    0.619609741596
 H    2.501733806200    0.920629884921   -1.034390258404
 H    3.676733806200    0.507629884921    0.263609741596
 C   -1.489266193800   -2.162370115079    0.675609741596
 H   -1.867266193800   -2.135370115079   -0.362390258404
 H   -2.082266193800   -1.463370115079    1.291609741596
 H   -1.599266193800   -3.182370115079    1.075609741596
 K   -1.154020762661    1.490627131076   -0.727237324711
