14

 P    0.257451321595   -0.334006324936    0.159180733275
 O   -0.329548678405    0.715993675064    1.114180733275
 O   -0.008548678405   -0.286006324936   -1.352819266725
 O    1.920451321595   -0.508006324936    0.446180733275
 O   -0.057548678405   -1.892006324936    0.751180733275
 C    2.657451321595    0.656993675064    0.069180733275
 H    2.326451321595    1.539993675064    0.645180733275
 H    2.542451321595    0.867993675064   -1.008819266725
 H    3.717451321595    0.454993675064    0.289180733275
 C   -1.448548678405   -2.215006324936    0.701180733275
 H   -1.826548678405   -2.188006324936   -0.336819266725
 H   -2.041548678405   -1.516006324936    1.317180733275
 H   -1.558548678405   -3.235006324936    1.101180733275
 K   -1.284647568374    1.659490576988   -0.809272216320
