14

 P    0.284596331858   -0.369097131507    0.176228061061
 O   -0.302403668142    0.680902868493    1.131228061061
 O    0.018596331858   -0.321097131507   -1.335771938939
 O    1.947596331858   -0.543097131507    0.463228061061
 O   -0.030403668142   -1.927097131507    0.768228061061
 C    2.684596331858    0.621902868493    0.086228061061
 H    2.353596331858    1.504902868493    0.662228061061
 H    2.569596331858    0.832902868493   -0.991771938939
 H    3.744596331858    0.419902868493    0.306228061061
 C   -1.421403668142   -2.250097131507    0.718228061061
 H   -1.799403668142   -2.223097131507   -0.319771938939
 H   -2.014403668142   -1.551097131507    1.334228061061
 H   -1.531403668142   -3.270097131507    1.118228061061
 K   -1.371732105516    1.772066207596   -0.863962144059
