14

 P    0.325313847252   -0.421733341364    0.201799052740
 O   -0.261686152748    0.628266658636    1.156799052740
 O    0.059313847252   -0.373733341364   -1.310200947260
 O    1.988313847252   -0.595733341364    0.488799052740
 O    0.010313847252   -1.979733341364    0.793799052740
 C    2.725313847252    0.569266658636    0.111799052740
 H    2.394313847252    1.452266658636    0.687799052740
 H    2.610313847252    0.780266658636   -0.966200947260
 H    3.785313847252    0.367266658636    0.331799052740
 C   -1.380686152748   -2.302733341364    0.743799052740
 H   -1.758686152748   -2.275733341364   -0.294200947260
 H   -1.973686152748   -1.603733341364    1.359799052740
 H   -1.490686152748   -3.322733341364    1.143799052740
 K   -1.502358911229    1.940929653508   -0.945997035668
