14

 P    0.366031362647   -0.474369551221    0.227370044419
 O   -0.220968637353    0.575630448779    1.182370044419
 O    0.100031362647   -0.426369551221   -1.284629955581
 O    2.029031362647   -0.648369551221    0.514370044419
 O    0.051031362647   -2.032369551221    0.819370044419
 C    2.766031362647    0.516630448779    0.137370044419
 H    2.435031362647    1.399630448779    0.713370044419
 H    2.651031362647    0.727630448779   -0.940629955581
 H    3.826031362647    0.314630448779    0.357370044419
 C   -1.339968637353   -2.355369551221    0.769370044419
 H   -1.717968637353   -2.328369551221   -0.268629955581
 H   -1.932968637353   -1.656369551221    1.385370044419
 H   -1.449968637353   -3.375369551221    1.169370044419
 K   -1.632985716943    2.109793099420   -1.028031927277
