14

 P    0.447466393435   -0.579641970935    0.278512027778
 O   -0.139533606565    0.470358029065    1.233512027778
 O    0.181466393435   -0.531641970935   -1.233487972222
 O    2.110466393435   -0.753641970935    0.565512027778
 O    0.132466393435   -2.137641970935    0.870512027778
 C    2.847466393435    0.411358029065    0.188512027778
 H    2.516466393435    1.294358029065    0.764512027778
 H    2.732466393435    0.622358029065   -0.889487972222
 H    3.907466393435    0.209358029065    0.408512027778
 C   -1.258533606565   -2.460641970935    0.820512027778
 H   -1.636533606565   -2.433641970935   -0.217487972222
 H   -1.851533606565   -1.761641970935    1.436512027778
 H   -1.368533606565   -3.480641970935    1.220512027778
 K   -1.894239328369    2.447519991245   -1.192101710496
