14

 P    0.474611403698   -0.614732777507    0.295559355564
 O   -0.112388596302    0.435267222493    1.250559355564
 O    0.208611403698   -0.566732777507   -1.216440644436
 O    2.137611403698   -0.788732777507    0.582559355564
 O    0.159611403698   -2.172732777507    0.887559355564
 C    2.874611403698    0.376267222493    0.205559355564
 H    2.543611403698    1.259267222493    0.781559355564
 H    2.759611403698    0.587267222493   -0.872440644436
 H    3.934611403698    0.174267222493    0.425559355564
 C   -1.231388596302   -2.495732777507    0.837559355564
 H   -1.609388596302   -2.468732777507   -0.200440644436
 H   -1.824388596302   -1.796732777507    1.453559355564
 H   -1.341388596302   -3.515732777507    1.237559355564
 K   -1.981323865511    2.560095621853   -1.246791638235
