14

 P    0.488183908830   -0.632278180793    0.304083019457
 O   -0.098816091170    0.417721819207    1.259083019457
 O    0.222183908830   -0.584278180793   -1.207916980543
 O    2.151183908830   -0.806278180793    0.591083019457
 O    0.173183908830   -2.190278180793    0.896083019457
 C    2.888183908830    0.358721819207    0.214083019457
 H    2.557183908830    1.241721819207    0.790083019457
 H    2.773183908830    0.569721819207   -0.863916980543
 H    3.948183908830    0.156721819207    0.434083019457
 C   -1.217816091170   -2.513278180793    0.846083019457
 H   -1.595816091170   -2.486278180793   -0.191916980543
 H   -1.810816091170   -1.814278180793    1.462083019457
 H   -1.327816091170   -3.533278180793    1.246083019457
 K   -2.024866134082    2.616383437157   -1.274136602105
