14

 P    0.501756413961   -0.649823584078    0.312606683350
 O   -0.085243586039    0.400176415922    1.267606683350
 O    0.235756413961   -0.601823584078   -1.199393316650
 O    2.164756413961   -0.823823584078    0.599606683350
 O    0.186756413961   -2.207823584078    0.904606683350
 C    2.901756413961    0.341176415922    0.222606683350
 H    2.570756413961    1.224176415922    0.798606683350
 H    2.786756413961    0.552176415922   -0.855393316650
 H    3.961756413961    0.139176415922    0.442606683350
 C   -1.204243586039   -2.530823584078    0.854606683350
 H   -1.582243586039   -2.503823584078   -0.183393316650
 H   -1.797243586039   -1.831823584078    1.470606683350
 H   -1.314243586039   -3.550823584078    1.254606683350
 K   -2.068408402653    2.672671252461   -1.301481565974
