14

 P    0.515328919093   -0.667368987364    0.321130347243
 O   -0.071671080907    0.382631012636    1.276130347243
 O    0.249328919093   -0.619368987364   -1.190869652757
 O    2.178328919093   -0.841368987364    0.608130347243
 O    0.200328919093   -2.225368987364    0.913130347243
 C    2.915328919093    0.323631012636    0.231130347243
 H    2.584328919093    1.206631012636    0.807130347243
 H    2.800328919093    0.534631012636   -0.846869652757
 H    3.975328919093    0.121631012636    0.451130347243
 C   -1.190671080907   -2.548368987364    0.863130347243
 H   -1.568671080907   -2.521368987364   -0.174869652757
 H   -1.783671080907   -1.849368987364    1.479130347243
 H   -1.300671080907   -3.568368987364    1.263130347243
 K   -2.111950671224    2.728959067765   -1.328826529844
