14

 P    0.623908960144   -0.807732213650    0.389319658387
 O    0.036908960144    0.242267786350    1.344319658387
 O    0.357908960144   -0.759732213650   -1.122680341613
 O    2.286908960144   -0.981732213650    0.676319658387
 O    0.308908960144   -2.365732213650    0.981319658387
 C    3.023908960144    0.183267786350    0.299319658387
 H    2.692908960144    1.066267786350    0.875319658387
 H    2.908908960144    0.394267786350   -0.778680341613
 H    4.083908960144   -0.018732213650    0.519319658387
 C   -1.082091039856   -2.688732213650    0.931319658387
 H   -1.460091039856   -2.661732213650   -0.106680341613
 H   -1.675091039856   -1.989732213650    1.547319658387
 H   -1.192091039856   -3.708732213650    1.331319658387
 K   -2.460288819793    3.179261590198   -1.547586240802
