14

 P    0.664626475539   -0.860368423507    0.414890650067
 O    0.077626475539    0.189631576493    1.369890650067
 O    0.398626475539   -0.812368423507   -1.097109349933
 O    2.327626475539   -1.034368423507    0.701890650067
 O    0.349626475539   -2.418368423507    1.006890650067
 C    3.064626475539    0.130631576493    0.324890650067
 H    2.733626475539    1.013631576493    0.900890650067
 H    2.949626475539    0.341631576493   -0.753109349933
 H    4.124626475539   -0.071368423507    0.544890650067
 C   -1.041373524461   -2.741368423507    0.956890650067
 H   -1.419373524461   -2.714368423507   -0.081109349933
 H   -1.634373524461   -2.042368423507    1.572890650067
 H   -1.151373524461   -3.761368423507    1.356890650067
 K   -2.590915625506    3.348125036110   -1.629621132411
