14

 P    0.732489001196   -0.948095439935    0.457508969532
 O    0.145489001196    0.101904560065    1.412508969532
 O    0.466489001196   -0.900095439935   -1.054491030468
 O    2.395489001196   -1.122095439935    0.744508969532
 O    0.417489001196   -2.506095439935    1.049508969532
 C    3.132489001196    0.042904560065    0.367508969532
 H    2.801489001196    0.925904560065    0.943508969532
 H    3.017489001196    0.253904560065   -0.710491030468
 H    4.192489001196   -0.159095439935    0.587508969532
 C   -0.973510998804   -2.829095439935    0.999508969532
 H   -1.351510998804   -2.802095439935   -0.038491030468
 H   -1.566510998804   -2.130095439935    1.615508969532
 H   -1.083510998804   -3.849095439935    1.399508969532
 K   -2.808626968362    3.629564112630   -1.766345951759
