14

 P    0.786779021722   -1.018277053078    0.491603625104
 O    0.199779021722    0.031722946922    1.446603625104
 O    0.520779021722   -0.970277053078   -1.020396374896
 O    2.449779021722   -1.192277053078    0.778603625104
 O    0.471779021722   -2.576277053078    1.083603625104
 C    3.186779021722   -0.027277053078    0.401603625104
 H    2.855779021722    0.855722946922    0.977603625104
 H    3.071779021722    0.183722946922   -0.676396374896
 H    4.246779021722   -0.229277053078    0.621603625104
 C   -0.919220978278   -2.899277053078    1.033603625104
 H   -1.297220978278   -2.872277053078   -0.004396374896
 H   -1.512220978278   -2.200277053078    1.649603625104
 H   -1.029220978278   -3.919277053078    1.433603625104
 K   -2.982796042646    3.854715373846   -1.875725807238
