14

 P    0.936076578168   -1.211276489221    0.585363927928
 O    0.349076578168   -0.161276489221    1.540363927928
 O    0.670076578168   -1.163276489221   -0.926636072072
 O    2.599076578168   -1.385276489221    0.872363927928
 O    0.621076578168   -2.769276489221    1.177363927928
 C    3.336076578168   -0.220276489221    0.495363927928
 H    3.005076578168    0.662723510779    1.071363927928
 H    3.221076578168   -0.009276489221   -0.582636072072
 H    4.396076578168   -0.422276489221    0.715363927928
 C   -0.769923421832   -3.092276489221    1.127363927928
 H   -1.147923421832   -3.065276489221    0.089363927928
 H   -1.362923421832   -2.393276489221    1.743363927928
 H   -0.879923421832   -4.112276489221    1.527363927928
 K   -3.461760996928    4.473881342191   -2.176520409805
