14

 P    0.990366598694   -1.281458102363    0.619458583500
 O    0.403366598694   -0.231458102363    1.574458583500
 O    0.724366598694   -1.233458102363   -0.892541416500
 O    2.653366598694   -1.455458102363    0.906458583500
 O    0.675366598694   -2.839458102363    1.211458583500
 C    3.390366598694   -0.290458102363    0.529458583500
 H    3.059366598694    0.592541897637    1.105458583500
 H    3.275366598694   -0.079458102363   -0.548541416500
 H    4.450366598694   -0.492458102363    0.749458583500
 C   -0.715633401306   -3.162458102363    1.161458583500
 H   -1.093633401306   -3.135458102363    0.123458583500
 H   -1.308633401306   -2.463458102363    1.777458583500
 H   -0.825633401306   -4.182458102363    1.561458583500
 K   -3.635930071212    4.699032603407   -2.285900265284
