14

 P    1.003939103826   -1.299003505649    0.627982247393
 O    0.416939103826   -0.249003505649    1.582982247393
 O    0.737939103826   -1.251003505649   -0.884017752607
 O    2.666939103826   -1.473003505649    0.914982247393
 O    0.688939103826   -2.857003505649    1.219982247393
 C    3.403939103826   -0.308003505649    0.537982247393
 H    3.072939103826    0.574996494351    1.113982247393
 H    3.288939103826   -0.097003505649   -0.540017752607
 H    4.463939103826   -0.510003505649    0.757982247393
 C   -0.702060896174   -3.180003505649    1.169982247393
 H   -1.080060896174   -3.153003505649    0.131982247393
 H   -1.295060896174   -2.481003505649    1.785982247393
 H   -0.812060896174   -4.200003505649    1.569982247393
 K   -3.679472339783    4.755320418711   -2.313245229153
