14

 P    1.085374134614   -1.404275925363    0.679124230752
 O    0.498374134614   -0.354275925363    1.634124230752
 O    0.819374134614   -1.356275925363   -0.832875769248
 O    2.748374134614   -1.578275925363    0.966124230752
 O    0.770374134614   -2.962275925363    1.271124230752
 C    3.485374134614   -0.413275925363    0.589124230752
 H    3.154374134614    0.469724074637    1.165124230752
 H    3.370374134614   -0.202275925363   -0.488875769248
 H    4.545374134614   -0.615275925363    0.809124230752
 C   -0.620625865386   -3.285275925363    1.221124230752
 H   -0.998625865386   -3.258275925363    0.183124230752
 H   -1.213625865386   -2.586275925363    1.837124230752
 H   -0.730625865386   -4.305275925363    1.621124230752
 K   -3.940725951209    5.093047310536   -2.477315012371
