14

 P    1.112519144877   -1.439366731935    0.696171558538
 O    0.525519144877   -0.389366731935    1.651171558538
 O    0.846519144877   -1.391366731935   -0.815828441462
 O    2.775519144877   -1.613366731935    0.983171558538
 O    0.797519144877   -2.997366731935    1.288171558538
 C    3.512519144877   -0.448366731935    0.606171558538
 H    3.181519144877    0.434633268065    1.182171558538
 H    3.397519144877   -0.237366731935   -0.471828441462
 H    4.572519144877   -0.650366731935    0.826171558538
 C   -0.593480855123   -3.320366731935    1.238171558538
 H   -0.971480855123   -3.293366731935    0.200171558538
 H   -1.186480855123   -2.621366731935    1.854171558538
 H   -0.703480855123   -4.340366731935    1.638171558538
 K   -4.027810488352    5.205622941144   -2.532004940111
