14

 P    1.193954175666   -1.544639151649    0.747313541896
 O    0.606954175666   -0.494639151649    1.702313541896
 O    0.927954175666   -1.496639151649   -0.764686458104
 O    2.856954175666   -1.718639151649    1.034313541896
 O    0.878954175666   -3.102639151649    1.339313541896
 C    3.593954175666   -0.553639151649    0.657313541896
 H    3.262954175666    0.329360848351    1.233313541896
 H    3.478954175666   -0.342639151649   -0.420686458104
 H    4.653954175666   -0.755639151649    0.877313541896
 C   -0.512045824334   -3.425639151649    1.289313541896
 H   -0.890045824334   -3.398639151649    0.251313541896
 H   -1.105045824334   -2.726639151649    1.905313541896
 H   -0.622045824334   -4.445639151649    1.689313541896
 K   -4.289064099778    5.543349832968   -2.696074723329
