14

 P    1.221099185929   -1.579729958220    0.764360869682
 O    0.634099185929   -0.529729958220    1.719360869682
 O    0.955099185929   -1.531729958220   -0.747639130318
 O    2.884099185929   -1.753729958220    1.051360869682
 O    0.906099185929   -3.137729958220    1.356360869682
 C    3.621099185929   -0.588729958220    0.674360869682
 H    3.290099185929    0.294270041780    1.250360869682
 H    3.506099185929   -0.377729958220   -0.403639130318
 H    4.681099185929   -0.790729958220    0.894360869682
 C   -0.484900814071   -3.460729958220    1.306360869682
 H   -0.862900814071   -3.433729958220    0.268360869682
 H   -1.077900814071   -2.761729958220    1.922360869682
 H   -0.594900814071   -4.480729958220    1.706360869682
 K   -4.376148636920    5.655925463576   -2.750764651068
