14

 P    1.234671691061   -1.597275361506    0.772884533575
 O    0.647671691061   -0.547275361506    1.727884533575
 O    0.968671691061   -1.549275361506   -0.739115466425
 O    2.897671691061   -1.771275361506    1.059884533575
 O    0.919671691061   -3.155275361506    1.364884533575
 C    3.634671691061   -0.606275361506    0.682884533575
 H    3.303671691061    0.276724638494    1.258884533575
 H    3.519671691061   -0.395275361506   -0.395115466425
 H    4.694671691061   -0.808275361506    0.902884533575
 C   -0.471328308939   -3.478275361506    1.314884533575
 H   -0.849328308939   -3.451275361506    0.276884533575
 H   -1.064328308939   -2.779275361506    1.930884533575
 H   -0.581328308939   -4.498275361506    1.714884533575
 K   -4.419690905491    5.712213278881   -2.778109614938
