19

 C    0.026660198440    3.812822953457   -0.018859721845
 H    0.417490198440    4.824632953457   -0.051569721845
 C    0.648170198440    2.575062953457   -0.061059721845
 H    1.710950198440    2.364782953457   -0.140369721845
 N   -1.318499801560    3.537182953457    0.083630278155
 H   -2.064079801560    4.223412953457    0.137910278155
 C   -1.489209801560    2.189512953457    0.101860278155
 H   -2.462839801560    1.714652953457    0.177760278155
 N   -0.302249801560    1.567632953457    0.014590278155
LI    0.068060198440   -0.352987046543   -0.003289721845
 N    0.295235508035   -1.531236197561   -0.014258625022
 C   -0.655188892639   -2.538661596156    0.061391678807
 H   -1.717978293290   -2.328385518783    0.140692531571
 C   -0.033678778655   -3.776423051538    0.019191913552
 H   -0.424505082820   -4.788231956139    0.051899193217
 N    1.311482390764   -3.500783833755   -0.083280886777
 H    2.057066137972   -4.187017653731   -0.137559548515
 C    1.482186508799   -2.153108552609   -0.101509934564
 H    2.455819362417   -1.678261516221   -0.177403850584
