19

 C    0.008657157045    3.906196076960   -0.017990465330
 H    0.399487157045    4.918006076960   -0.050700465330
 C    0.630167157045    2.668436076960   -0.060190465330
 H    1.692947157045    2.458156076960   -0.139500465330
 N   -1.336502842955    3.630556076960    0.084499534670
 H   -2.082082842955    4.316786076960    0.138779534670
 C   -1.507212842955    2.282886076960    0.102729534670
 H   -2.480842842955    1.808026076960    0.178629534670
 N   -0.320252842955    1.661006076960    0.015459534670
LI    0.050057157045   -0.259613923040   -0.002420465330
 N    0.315095018238   -1.634237932561   -0.015217519036
 C   -0.635329382435   -2.641663331156    0.060432784792
 H   -1.698118783086   -2.431387253783    0.139733637557
 C   -0.013819268451   -3.879424786538    0.018233019538
 H   -0.404645572616   -4.891233691139    0.050940299203
 N    1.331341900968   -3.603785568755   -0.084239780791
 H    2.076925648176   -4.290019388731   -0.138518442530
 C    1.502046019003   -2.256110287609   -0.102468828579
 H    2.475678872621   -1.781263251221   -0.178362744598
