19

 C   -0.000344363653    3.952882638711   -0.017555837072
 H    0.390485636347    4.964692638711   -0.050265837072
 C    0.621165636347    2.715122638711   -0.059755837072
 H    1.683945636347    2.504842638711   -0.139065837072
 N   -1.345504363653    3.677242638711    0.084934162928
 H   -2.091084363653    4.363472638711    0.139214162928
 C   -1.516214363653    2.329572638711    0.103164162928
 H   -2.489844363653    1.854712638711    0.179064162928
 N   -0.329254363653    1.707692638711    0.015894162928
LI    0.041055636347   -0.212927361289   -0.001985837072
 N    0.325024773340   -1.685738800061   -0.015696966044
 C   -0.625399627333   -2.693164198656    0.059953337785
 H   -1.688189027984   -2.482888121283    0.139254190550
 C   -0.003889513349   -3.930925654038    0.017753572530
 H   -0.394715817514   -4.942734558639    0.050460852196
 N    1.341271656070   -3.655286436255   -0.084719227798
 H    2.086855403278   -4.341520256231   -0.138997889537
 C    1.511975774105   -2.307611155109   -0.102948275586
 H    2.485608627723   -1.832764118721   -0.178842191606
