19

 C   -0.009345884350    3.999569200463   -0.017121208814
 H    0.381484115650    5.011379200463   -0.049831208814
 C    0.612164115650    2.761809200463   -0.059321208814
 H    1.674944115650    2.551529200463   -0.138631208814
 N   -1.354505884350    3.723929200463    0.085368791186
 H   -2.100085884350    4.410159200463    0.139648791186
 C   -1.525215884350    2.376259200463    0.103598791186
 H   -2.498845884350    1.901399200463    0.179498791186
 N   -0.338255884350    1.754379200463    0.016328791186
LI    0.032054115650   -0.166240799537   -0.001551208814
 N    0.334954528442   -1.737239667561   -0.016176413051
 C   -0.615469872231   -2.744665066156    0.059473890778
 H   -1.678259272882   -2.534388988783    0.138774743543
 C    0.006040241753   -3.982426521538    0.017274125523
 H   -0.384786062412   -4.994235426139    0.049981405189
 N    1.351201411172   -3.706787303755   -0.085198674805
 H    2.096785158380   -4.393021123731   -0.139477336544
 C    1.521905529207   -2.359112022609   -0.103427722593
 H    2.495538382825   -1.884264986221   -0.179321638613
