19

 C   -0.045351967140    4.186315447468   -0.015382695784
 H    0.345478032860    5.198125447468   -0.048092695784
 C    0.576158032860    2.948555447468   -0.057582695784
 H    1.638938032860    2.738275447468   -0.136892695784
 N   -1.390511967140    3.910675447468    0.087107304216
 H   -2.136091967140    4.596905447468    0.141387304216
 C   -1.561221967140    2.563005447468    0.105337304216
 H   -2.534851967140    2.088145447468    0.181237304216
 N   -0.374261967140    1.941125447468    0.018067304216
LI   -0.003951967140    0.020505447468    0.000187304216
 N    0.374673548850   -1.943243137561   -0.018094201079
 C   -0.575750851823   -2.950668536156    0.057556102749
 H   -1.638540252474   -2.740392458783    0.136856955514
 C    0.045759262161   -4.188429991538    0.015356337495
 H   -0.345067042004   -5.200238896139    0.048063617160
 N    1.390920431580   -3.912790773755   -0.087116462834
 H    2.136504178788   -4.599024593731   -0.141395124573
 C    1.561624549615   -2.565115492610   -0.105345510622
 H    2.535257403233   -2.090268456221   -0.181239426641
