19

 C   -0.054353487838    4.233002009220   -0.014948067526
 H    0.336476512162    5.244812009220   -0.047658067526
 C    0.567156512162    2.995242009220   -0.057148067526
 H    1.629936512162    2.784962009220   -0.136458067526
 N   -1.399513487838    3.957362009220    0.087541932474
 H   -2.145093487838    4.643592009220    0.141821932474
 C   -1.570223487838    2.609692009220    0.105771932474
 H   -2.543853487838    2.134832009220    0.181671932474
 N   -0.383263487838    1.987812009220    0.018501932474
LI   -0.012953487838    0.067192009220    0.000621932474
 N    0.384603303952   -1.994744005061   -0.018573648087
 C   -0.565821096721   -3.002169403657    0.057076655742
 H   -1.628610497372   -2.791893326283    0.136377508507
 C    0.055689017263   -4.239930859038    0.014876890487
 H   -0.335137286902   -5.251739763639    0.047584170153
 N    1.400850186682   -3.964291641255   -0.087595909841
 H    2.146433933890   -4.650525461231   -0.141874571580
 C    1.571554304717   -2.616616360110   -0.105824957629
 H    2.545187158335   -2.141769323721   -0.181718873649
