19

 C   -0.063355008536    4.279688570971   -0.014513439269
 H    0.327474991464    5.291498570971   -0.047223439269
 C    0.558154991464    3.041928570971   -0.056713439269
 H    1.620934991464    2.831648570971   -0.136023439269
 N   -1.408515008536    4.004048570971    0.087976560731
 H   -2.154095008536    4.690278570971    0.142256560731
 C   -1.579225008536    2.656378570971    0.106206560731
 H   -2.552855008536    2.181518570971    0.182106560731
 N   -0.392265008536    2.034498570971    0.018936560731
LI   -0.021955008536    0.113878570971    0.001056560731
 N    0.394533059054   -2.046244872561   -0.019053095094
 C   -0.555891341619   -3.053670271157    0.056597208735
 H   -1.618680742270   -2.843394193783    0.135898061500
 C    0.065618772365   -4.291431726538    0.014397443480
 H   -0.325207531800   -5.303240631139    0.047104723146
 N    1.410779941784   -4.015792508755   -0.088075356848
 H    2.156363688992   -4.702026328731   -0.142354018587
 C    1.581484059819   -2.668117227610   -0.106304404636
 H    2.555116913437   -2.193270191221   -0.182198320656
