19

 C   -0.090359570628    4.419748256225   -0.013209554496
 H    0.300470429372    5.431558256225   -0.045919554496
 C    0.531150429372    3.181988256225   -0.055409554496
 H    1.593930429372    2.971708256225   -0.134719554496
 N   -1.435519570628    4.144108256225    0.089280445504
 H   -2.181099570628    4.830338256225    0.143560445504
 C   -1.606229570628    2.796438256225    0.107510445504
 H   -2.579859570628    2.321578256225    0.183410445504
 N   -0.419269570628    2.174558256225    0.020240445504
LI   -0.048959570628    0.253938256225    0.002360445504
 N    0.424322324360   -2.200747475061   -0.020491436115
 C   -0.526102076313   -3.208172873657    0.055158867714
 H   -1.588891476964   -2.997896796284    0.134459720478
 C    0.095408037670   -4.445934329038    0.012959102459
 H   -0.295418266494   -5.457743233639    0.045666382124
 N    1.440569207089   -4.170295111255   -0.089513697870
 H    2.186152954298   -4.856528931231   -0.143792359608
 C    1.611273325125   -2.822619830110   -0.107742745657
 H    2.584906178742   -2.347772793721   -0.183636661677
