19

 C   -0.099361091326    4.466434817977   -0.012774926238
 H    0.291468908674    5.478244817977   -0.045484926238
 C    0.522148908674    3.228674817977   -0.054974926238
 H    1.584928908674    3.018394817977   -0.134284926238
 N   -1.444521091326    4.190794817977    0.089715073762
 H   -2.190101091326    4.877024817977    0.143995073762
 C   -1.615231091326    2.843124817977    0.107945073762
 H   -2.588861091326    2.368264817977    0.183845073762
 N   -0.428271091326    2.221244817977    0.020675073762
LI   -0.057961091326    0.300624817977    0.002795073762
 N    0.434252079462   -2.252248342561   -0.020970883122
 C   -0.516172321211   -3.259673741157    0.054679420706
 H   -1.578961721862   -3.049397663784    0.133980273471
 C    0.105337792772   -4.497435196538    0.012479655452
 H   -0.285488511392   -5.509244101139    0.045186935117
 N    1.450498962191   -4.221795978755   -0.089993144877
 H    2.196082709400   -4.908029798731   -0.144271806616
 C    1.621203080227   -2.874120697610   -0.108222192664
 H    2.594835933844   -2.399273661221   -0.184116108684
