19

 C   -0.117364132721    4.559807941480   -0.011905669723
 H    0.273465867279    5.571617941480   -0.044615669723
 C    0.504145867279    3.322047941480   -0.054105669723
 H    1.566925867279    3.111767941480   -0.133415669723
 N   -1.462524132721    4.284167941480    0.090584330277
 H   -2.208104132721    4.970397941480    0.144864330277
 C   -1.633234132721    2.936497941480    0.108814330277
 H   -2.606864132721    2.461637941480    0.184714330277
 N   -0.446274132721    2.314617941480    0.021544330277
LI   -0.075964132721    0.393997941480    0.003664330277
 N    0.454111589666   -2.355250077561   -0.021929777137
 C   -0.496312811007   -3.362675476157    0.053720526692
 H   -1.559102211658   -3.152399398784    0.133021379457
 C    0.125197302976   -4.600436931538    0.011520761437
 H   -0.265629001188   -5.612245836139    0.044228041103
 N    1.470358472395   -4.324797713755   -0.090952038891
 H    2.215942219604   -5.011031533731   -0.145230700630
 C    1.641062590430   -2.977122432610   -0.109181086679
 H    2.614695444048   -2.502275396221   -0.185075002699
