19

 C   -0.162371736209    4.793240750237   -0.009732528435
 H    0.228458263791    5.805050750237   -0.042442528435
 C    0.459138263791    3.555480750237   -0.051932528435
 H    1.521918263791    3.345200750237   -0.131242528435
 N   -1.507531736209    4.517600750237    0.092757471565
 H   -2.253111736209    5.203830750237    0.147037471565
 C   -1.678241736209    3.169930750237    0.110987471565
 H   -2.651871736209    2.695070750237    0.186887471565
 N   -0.491281736209    2.548050750237    0.023717471565
LI   -0.120971736209    0.627430750237    0.005837471565
 N    0.503760365176   -2.612754415062   -0.024327012173
 C   -0.446664035498   -3.620179813657    0.051323291656
 H   -1.509453436148   -3.409903736284    0.130624144421
 C    0.174846078486   -4.857941269039    0.009123526401
 H   -0.215980225679   -5.869750173640    0.041830806067
 N    1.520007247905   -4.582302051256   -0.093349273927
 H    2.265590995114   -5.268535871232   -0.147627935666
 C    1.690711365940   -3.234626770110   -0.111578321715
 H    2.664344219558   -2.759779733721   -0.187472237735
