19

 C   -0.180374777604    4.886613873740   -0.008863271920
 H    0.210455222396    5.898423873740   -0.041573271920
 C    0.441135222396    3.648853873740   -0.051063271920
 H    1.503915222396    3.438573873740   -0.130373271920
 N   -1.525534777604    4.610973873740    0.093626728080
 H   -2.271114777604    5.297203873740    0.147906728080
 C   -1.696244777604    3.263303873740    0.111856728080
 H   -2.669874777604    2.788443873740    0.187756728080
 N   -0.509284777604    2.641423873740    0.024586728080
LI   -0.138974777604    0.720803873740    0.006706728080
 N    0.523619875380   -2.715756150062   -0.025285906187
 C   -0.426804525294   -3.723181548657    0.050364397642
 H   -1.489593925944   -3.512905471284    0.129665250406
 C    0.194705588690   -4.960943004039    0.008164632387
 H   -0.196120715475   -5.972751908640    0.040871912053
 N    1.539866758109   -4.685303786256   -0.094308167942
 H    2.285450505317   -5.371537606232   -0.148586829680
 C    1.710570876144   -3.337628505110   -0.112537215729
 H    2.684203729762   -2.862781468722   -0.188431131749
