19

 C   -0.198377818999    4.979986997242   -0.007994015405
 H    0.192452181001    5.991796997242   -0.040704015405
 C    0.423132181001    3.742226997242   -0.050194015405
 H    1.485912181001    3.531946997242   -0.129504015405
 N   -1.543537818999    4.704346997242    0.094495984595
 H   -2.289117818999    5.390576997242    0.148775984595
 C   -1.714247818999    3.356676997242    0.112725984595
 H   -2.687877818999    2.881816997242    0.188625984595
 N   -0.527287818999    2.734796997242    0.025455984595
LI   -0.156977818999    0.814176997242    0.007575984595
 N    0.543479385584   -2.818757885062   -0.026244800201
 C   -0.406945015090   -3.826183283657    0.049405503628
 H   -1.469734415740   -3.615907206284    0.128706356392
 C    0.214565098894   -5.063944739039    0.007205738373
 H   -0.176261205271   -6.075753643640    0.039913018038
 N    1.559726268313   -4.788305521256   -0.095267061956
 H    2.305310015521   -5.474539341232   -0.149545723694
 C    1.730430386348   -3.440630240110   -0.113496109743
 H    2.704063239966   -2.965783203722   -0.189390025763
