19

 C   -0.216380860394    5.073360120745   -0.007124758890
 H    0.174449139606    6.085170120745   -0.039834758890
 C    0.405129139606    3.835600120745   -0.049324758890
 H    1.467909139606    3.625320120745   -0.128634758890
 N   -1.561540860394    4.797720120745    0.095365241110
 H   -2.307120860394    5.483950120745    0.149645241110
 C   -1.732250860394    3.450050120745    0.113595241110
 H   -2.705880860394    2.975190120745    0.189495241110
 N   -0.545290860394    2.828170120745    0.026325241110
LI   -0.174980860394    0.907550120745    0.008445241110
 N    0.563338895788   -2.921759620062   -0.027203694216
 C   -0.387085504886   -3.929185018657    0.048446609613
 H   -1.449874905536   -3.718908941284    0.127747462378
 C    0.234424609098   -5.166946474039    0.006246844358
 H   -0.156401695067   -6.178755378640    0.038954124024
 N    1.579585778517   -4.891307256256   -0.096225955970
 H    2.325169525725   -5.577541076232   -0.150504617709
 C    1.750289896552   -3.543631975110   -0.114455003758
 H    2.723922750170   -3.068784938722   -0.190348919777
