19

 C   -0.225382381092    5.120046682497   -0.006690130632
 H    0.165447618908    6.131856682497   -0.039400130632
 C    0.396127618908    3.882286682497   -0.048890130632
 H    1.458907618908    3.672006682497   -0.128200130632
 N   -1.570542381092    4.844406682497    0.095799869368
 H   -2.316122381092    5.530636682497    0.150079869368
 C   -1.741252381092    3.496736682497    0.114029869368
 H   -2.714882381092    3.021876682497    0.189929869368
 N   -0.554292381092    2.874856682497    0.026759869368
LI   -0.183982381092    0.954236682497    0.008879869368
 N    0.573268650890   -2.973260487562   -0.027683141223
 C   -0.377155749784   -3.980685886157    0.047967162606
 H   -1.439945150435   -3.770409808784    0.127268015371
 C    0.244354364200   -5.218447341539    0.005767397351
 H   -0.146471939965   -6.230256246140    0.038474677017
 N    1.589515533619   -4.942808123756   -0.096705402977
 H    2.335099280827   -5.629041943732   -0.150984064716
 C    1.760219651654   -3.595132842610   -0.114934450765
 H    2.733852505272   -3.120285806222   -0.190828366785
