19

 C   -0.234383901790    5.166733244248   -0.006255502374
 H    0.156446098210    6.178543244248   -0.038965502374
 C    0.387126098210    3.928973244248   -0.048455502374
 H    1.449906098210    3.718693244248   -0.127765502374
 N   -1.579543901790    4.891093244248    0.096234497626
 H   -2.325123901790    5.577323244248    0.150514497626
 C   -1.750253901790    3.543423244248    0.114464497626
 H   -2.723883901790    3.068563244248    0.190364497626
 N   -0.563293901790    2.921543244248    0.027194497626
LI   -0.192983901790    1.000923244248    0.009314497626
 N    0.583198405992   -3.024761355062   -0.028162588230
 C   -0.367225994682   -4.032186753657    0.047487715599
 H   -1.430015395333   -3.821910676284    0.126788568364
 C    0.254284119302   -5.269948209039    0.005287950344
 H   -0.136542184863   -6.281757113640    0.037995230010
 N    1.599445288721   -4.994308991256   -0.097184849985
 H    2.345029035929   -5.680542811232   -0.151463511723
 C    1.770149406756   -3.646633710111   -0.115413897772
 H    2.743782260374   -3.171786673722   -0.191307813792
