19

 C   -0.243385422487    5.213419806000   -0.005820874117
 H    0.147444577513    6.225229806000   -0.038530874117
 C    0.378124577513    3.975659806000   -0.048020874117
 H    1.440904577513    3.765379806000   -0.127330874117
 N   -1.588545422487    4.937779806000    0.096669125883
 H   -2.334125422487    5.624009806000    0.150949125883
 C   -1.759255422487    3.590109806000    0.114899125883
 H   -2.732885422487    3.115249806000    0.190799125883
 N   -0.572295422487    2.968229806000    0.027629125883
LI   -0.201985422487    1.047609806000    0.009749125883
 N    0.593128161094   -3.076262222562   -0.028642035237
 C   -0.357296239580   -4.083687621157    0.047008268592
 H   -1.420085640231   -3.873411543784    0.126309121356
 C    0.264213874404   -5.321449076539    0.004808503337
 H   -0.126612429761   -6.333257981140    0.037515783002
 N    1.609375043823   -5.045809858756   -0.097664296992
 H    2.354958791031   -5.732043678732   -0.151942958730
 C    1.780079161858   -3.698134577611   -0.115893344779
 H    2.753712015476   -3.223287541222   -0.191787260799
