19

 C   -0.252386943185    5.260106367751   -0.005386245859
 H    0.138443056815    6.271916367751   -0.038096245859
 C    0.369123056815    4.022346367751   -0.047586245859
 H    1.431903056815    3.812066367751   -0.126896245859
 N   -1.597546943185    4.984466367751    0.097103754141
 H   -2.343126943185    5.670696367751    0.151383754141
 C   -1.768256943185    3.636796367751    0.115333754141
 H   -2.741886943185    3.161936367751    0.191233754141
 N   -0.581296943185    3.014916367751    0.028063754141
LI   -0.210986943185    1.094296367751    0.010183754141
 N    0.603057916196   -3.127763090062   -0.029121482244
 C   -0.347366484478   -4.135188488657    0.046528821585
 H   -1.410155885129   -3.924912411284    0.125829674349
 C    0.274143629506   -5.372949944039    0.004329056330
 H   -0.116682674659   -6.384758848640    0.037036335995
 N    1.619304798925   -5.097310726256   -0.098143743999
 H    2.364888546133   -5.783544546232   -0.152422405737
 C    1.790008916960   -3.749635445111   -0.116372791786
 H    2.763641770578   -3.274788408722   -0.192266707806
