19

 C   -0.279391505277    5.400166053005   -0.004082361086
 H    0.111438494723    6.411976053005   -0.036792361086
 C    0.342118494723    4.162406053005   -0.046282361086
 H    1.404898494723    3.952126053005   -0.125592361086
 N   -1.624551505277    5.124526053005    0.098407638914
 H   -2.370131505277    5.810756053005    0.152687638914
 C   -1.795261505277    3.776856053005    0.116637638914
 H   -2.768891505277    3.301996053005    0.192537638914
 N   -0.608301505277    3.154976053005    0.029367638914
LI   -0.237991505277    1.234356053005    0.011487638914
 N    0.632847181501   -3.282265692562   -0.030559823266
 C   -0.317577219172   -4.289691091158    0.045090480563
 H   -1.380366619823   -4.079415013784    0.124391333328
 C    0.303932894812   -5.527452546539    0.002890715308
 H   -0.086893409353   -6.539261451140    0.035597994974
 N    1.649094064231   -5.251813328756   -0.099582085020
 H    2.394677811439   -5.938047148732   -0.153860746759
 C    1.819798182266   -3.904138047611   -0.117811132808
 H    2.793431035884   -3.429291011222   -0.193705048828
