19

 C   -0.288393025975    5.446852614757   -0.003647732829
 H    0.102436974025    6.458662614757   -0.036357732829
 C    0.333116974025    4.209092614757   -0.045847732829
 H    1.395896974025    3.998812614757   -0.125157732829
 N   -1.633553025975    5.171212614757    0.098842267171
 H   -2.379133025975    5.857442614757    0.153122267171
 C   -1.804263025975    3.823542614757    0.117072267171
 H   -2.777893025975    3.348682614757    0.192972267171
 N   -0.617303025975    3.201662614757    0.029802267171
LI   -0.246993025975    1.281042614757    0.011922267171
 N    0.642776936603   -3.333766560062   -0.031039270273
 C   -0.307647464070   -4.341191958658    0.044611033556
 H   -1.370436864721   -4.130915881285    0.123911886321
 C    0.313862649914   -5.578953414039    0.002411268301
 H   -0.076963654251   -6.590762318640    0.035118547967
 N    1.659023819333   -5.303314196256   -0.100061532028
 H    2.404607566541   -5.989548016232   -0.154340193766
 C    1.829727937368   -3.955638915111   -0.118290579815
 H    2.803360790986   -3.480791878722   -0.194184495835
