19

 C   -0.306396067370    5.540225738260   -0.002778476314
 H    0.084433932630    6.552035738260   -0.035488476314
 C    0.315113932630    4.302465738260   -0.044978476314
 H    1.377893932630    4.092185738260   -0.124288476314
 N   -1.651556067370    5.264585738260    0.099711523686
 H   -2.397136067370    5.950815738260    0.153991523686
 C   -1.822266067370    3.916915738260    0.117941523686
 H   -2.795896067370    3.442055738260    0.193841523686
 N   -0.635306067370    3.295035738260    0.030671523686
LI   -0.264996067370    1.374415738260    0.012791523686
 N    0.662636446807   -3.436768295062   -0.031998164287
 C   -0.287787953866   -4.444193693658    0.043652139542
 H   -1.350577354517   -4.233917616285    0.122952992306
 C    0.333722160118   -5.681955149039    0.001452374287
 H   -0.057104144047   -6.693764053640    0.034159653952
 N    1.678883329537   -5.406315931256   -0.101020426042
 H    2.424467076745   -6.092549751232   -0.155299087780
 C    1.849587447572   -4.058640650111   -0.119249473829
 H    2.823220301190   -3.583793613722   -0.195143389849
