19

 C   -0.333400629463    5.680285423514   -0.001474591541
 H    0.057429370537    6.692095423514   -0.034184591541
 C    0.288109370537    4.442525423514   -0.043674591541
 H    1.350889370537    4.232245423514   -0.122984591541
 N   -1.678560629463    5.404645423514    0.101015408459
 H   -2.424140629463    6.090875423514    0.155295408459
 C   -1.849270629463    4.056975423514    0.119245408459
 H   -2.822900629463    3.582115423514    0.195145408459
 N   -0.662310629463    3.435095423514    0.031975408459
LI   -0.292000629463    1.514475423514    0.014095408459
 N    0.692425712113   -3.591270897563   -0.033436505309
 C   -0.257998688560   -4.598696296158    0.042213798520
 H   -1.320788089211   -4.388420218785    0.121514651285
 C    0.363511425424   -5.836457751539    0.000014033265
 H   -0.027314878741   -6.848266656140    0.032721312931
 N    1.708672594843   -5.560818533756   -0.102458767063
 H    2.454256342051   -6.247052353732   -0.156737428802
 C    1.879376712878   -4.213143252611   -0.120687814851
 H    2.853009566496   -3.738296216222   -0.196581730871
