19

 C   -0.351403670858    5.773658547017   -0.000605335026
 H    0.039426329142    6.785468547017   -0.033315335026
 C    0.270106329142    4.535898547017   -0.042805335026
 H    1.332886329142    4.325618547017   -0.122115335026
 N   -1.696563670858    5.498018547017    0.101884664974
 H   -2.442143670858    6.184248547017    0.156164664974
 C   -1.867273670858    4.150348547017    0.120114664974
 H   -2.840903670858    3.675488547017    0.196014664974
 N   -0.680313670858    3.528468547017    0.032844664974
LI   -0.310003670858    1.607848547017    0.014964664974
 N    0.712285222317   -3.694272632563   -0.034395399323
 C   -0.238139178356   -4.701698031158    0.041254904506
 H   -1.300928579007   -4.491421953785    0.120555757270
 C    0.383370935627   -5.939459486540   -0.000944860749
 H   -0.007455368537   -6.951268391141    0.031762418917
 N    1.728532105047   -5.663820268757   -0.103417661078
 H    2.474115852255   -6.350054088732   -0.157696322816
 C    1.899236223082   -4.316144987611   -0.121646708865
 H    2.872869076700   -3.841297951222   -0.197540624885
