19

 C   -0.360405191556    5.820345108768   -0.000170706768
 H    0.030424808444    6.832155108768   -0.032880706768
 C    0.261104808444    4.582585108768   -0.042370706768
 H    1.323884808444    4.372305108768   -0.121680706768
 N   -1.705565191556    5.544705108768    0.102319293232
 H   -2.451145191556    6.230935108768    0.156599293232
 C   -1.876275191556    4.197035108768    0.120549293232
 H   -2.849905191556    3.722175108768    0.196449293232
 N   -0.689315191556    3.575155108768    0.033279293232
LI   -0.319005191556    1.654535108768    0.015399293232
 N    0.722214977419   -3.745773500063   -0.034874846330
 C   -0.228209423254   -4.753198898658    0.040775457499
 H   -1.290998823905   -4.542922821285    0.120076310263
 C    0.393300690729   -5.990960354040   -0.001424307756
 H    0.002474386565   -7.002769258641    0.031282971909
 N    1.738461860148   -5.715321136257   -0.103897108085
 H    2.484045607357   -6.401554956232   -0.158175769823
 C    1.909165978184   -4.367645855111   -0.122126155872
 H    2.882798831801   -3.892798818722   -0.198020071892
