19

 C   -0.387409753648    5.960404794022    0.001133178005
 H    0.003420246352    6.972214794022   -0.031576821995
 C    0.234100246352    4.722644794022   -0.041066821995
 H    1.296880246352    4.512364794022   -0.120376821995
 N   -1.732569753648    5.684764794022    0.103623178005
 H   -2.478149753648    6.370994794022    0.157903178005
 C   -1.903279753648    4.337094794022    0.121853178005
 H   -2.876909753648    3.862234794022    0.197753178005
 N   -0.716319753648    3.715214794022    0.034583178005
LI   -0.346009753648    1.794594794022    0.016703178005
 N    0.752004242725   -3.900276102563   -0.036313187352
 C   -0.198420157948   -4.907701501158    0.039337116477
 H   -1.261209558599   -4.697425423785    0.118637969242
 C    0.423089956035   -6.145462956540   -0.002862648778
 H    0.032263651871   -7.157271861141    0.029844630888
 N    1.768251125454   -5.869823738757   -0.105335449106
 H    2.513834872663   -6.556057558733   -0.159614110845
 C    1.938955243490   -4.522148457611   -0.123564496894
 H    2.912588097107   -4.047301421223   -0.199458412914
