19

 C   -0.396411274346    6.007091355774    0.001567806262
 H   -0.005581274346    7.018901355774   -0.031142193738
 C    0.225098725654    4.769331355774   -0.040632193738
 H    1.287878725654    4.559051355774   -0.119942193738
 N   -1.741571274346    5.731451355774    0.104057806262
 H   -2.487151274346    6.417681355774    0.158337806262
 C   -1.912281274346    4.383781355774    0.122287806262
 H   -2.885911274346    3.908921355774    0.198187806262
 N   -0.725321274346    3.761901355774    0.035017806262
LI   -0.355011274346    1.841281355774    0.017137806262
 N    0.761933997827   -3.951776970063   -0.036792634359
 C   -0.188490402846   -4.959202368658    0.038857669470
 H   -1.251279803497   -4.748926291285    0.118158522235
 C    0.433019711137   -6.196963824040   -0.003342095785
 H    0.042193406973   -7.208772728641    0.029365183881
 N    1.778180880556   -5.921324606257   -0.105814896114
 H    2.523764627765   -6.607558426233   -0.160093557852
 C    1.948884998591   -4.573649325111   -0.124043943901
 H    2.922517852209   -4.098802288723   -0.199937859921
