19

 C   -0.432417357136    6.193837602780    0.003306319293
 H   -0.041587357136    7.205647602780   -0.029403680707
 C    0.189092642864    4.956077602780   -0.038893680707
 H    1.251872642864    4.745797602780   -0.118203680707
 N   -1.777577357136    5.918197602780    0.105796319293
 H   -2.523157357136    6.604427602780    0.160076319293
 C   -1.948287357136    4.570527602780    0.124026319293
 H   -2.921917357136    4.095667602780    0.199926319293
 N   -0.761327357136    3.948647602780    0.036756319293
LI   -0.391017357136    2.028027602780    0.018876319293
 N    0.801653018235   -4.157780440063   -0.038710422387
 C   -0.148771382439   -5.165205838658    0.036939881441
 H   -1.211560783089   -4.954929761285    0.116240734206
 C    0.472738731545   -6.402967294040   -0.005259883814
 H    0.081912427381   -7.414776198641    0.027447395852
 N    1.817899900964   -6.127328076257   -0.107732684142
 H    2.563483648173   -6.813561896233   -0.162011345881
 C    1.988604018999   -4.779652795111   -0.125961731930
 H    2.962236872617   -4.304805758723   -0.201855647949
