19

 C   -0.441418877834    6.240524164531    0.003740947550
 H   -0.050588877834    7.252334164531   -0.028969052450
 C    0.180091122166    5.002764164531   -0.038459052450
 H    1.242871122166    4.792484164531   -0.117769052450
 N   -1.786578877834    5.964884164531    0.106230947550
 H   -2.532158877834    6.651114164531    0.160510947550
 C   -1.957288877834    4.617214164531    0.124460947550
 H   -2.930918877834    4.142354164531    0.200360947550
 N   -0.770328877834    3.995334164531    0.037190947550
LI   -0.400018877834    2.074714164531    0.019310947550
 N    0.811582773337   -4.209281307563   -0.039189869395
 C   -0.138841627337   -5.216706706158    0.036460434434
 H   -1.201631027987   -5.006430628785    0.115761287199
 C    0.482668486647   -6.454468161540   -0.005739330821
 H    0.091842182482   -7.466277066141    0.026967948845
 N    1.827829656066   -6.178828943757   -0.108212131149
 H    2.573413403275   -6.865062763733   -0.162490792888
 C    1.998533774101   -4.831153662611   -0.126441178937
 H    2.972166627719   -4.356306626223   -0.202335094957
