19

 C   -0.450420398531    6.287210726282    0.004175575808
 H   -0.059590398531    7.299020726282   -0.028534424192
 C    0.171089601469    5.049450726282   -0.038024424192
 H    1.233869601469    4.839170726282   -0.117334424192
 N   -1.795580398531    6.011570726282    0.106665575808
 H   -2.541160398531    6.697800726282    0.160945575808
 C   -1.966290398531    4.663900726282    0.124895575808
 H   -2.939920398531    4.189040726282    0.200795575808
 N   -0.779330398531    4.042020726282    0.037625575808
LI   -0.409020398531    2.121400726282    0.019745575808
 N    0.821512528439   -4.260782175063   -0.039669316402
 C   -0.128911872235   -5.268207573658    0.035980987427
 H   -1.191701272885   -5.057931496285    0.115281840192
 C    0.492598241749   -6.505969029040   -0.006218777828
 H    0.101771937584   -7.517777933641    0.026488501838
 N    1.837759411168   -6.230329811257   -0.108691578157
 H    2.583343158377   -6.916563631233   -0.162970239895
 C    2.008463529203   -4.882654530112   -0.126920625944
 H    2.982096382821   -4.407807493723   -0.202814541964
