19

 C   -0.495428002019    6.520643535040    0.006348717096
 H   -0.104598002019    7.532453535040   -0.026361282904
 C    0.126081997981    5.282883535040   -0.035851282904
 H    1.188861997981    5.072603535040   -0.115161282904
 N   -1.840588002019    6.245003535040    0.108838717096
 H   -2.586168002019    6.931233535040    0.163118717096
 C   -2.011298002019    4.897333535040    0.127068717096
 H   -2.984928002019    4.422473535040    0.202968717096
 N   -0.824338002019    4.275453535040    0.039798717096
LI   -0.454028002019    2.354833535040    0.021918717096
 N    0.871161303949   -4.518286512563   -0.042066551438
 C   -0.079263096725   -5.525711911159    0.033583752391
 H   -1.142052497375   -5.315435833786    0.112884605156
 C    0.542247017259   -6.763473366540   -0.008616012864
 H    0.151420713094   -7.775282271141    0.024091266802
 N    1.887408186678   -6.487834148757   -0.111088813192
 H    2.632991933886   -7.174067968733   -0.165367474931
 C    2.058112304713   -5.140158867612   -0.129317860980
 H    3.031745158331   -4.665311831223   -0.205211777000
