19

 C   -0.522432564112    6.660703220294    0.007652601869
 H   -0.131602564112    7.672513220294   -0.025057398131
 C    0.099077435888    5.422943220294   -0.034547398131
 H    1.161857435888    5.212663220294   -0.113857398131
 N   -1.867592564112    6.385063220294    0.110142601869
 H   -2.613172564112    7.071293220294    0.164422601869
 C   -2.038302564112    5.037393220294    0.128372601869
 H   -3.011932564112    4.562533220294    0.204272601869
 N   -0.851342564112    4.415513220294    0.041102601869
LI   -0.481032564112    2.494893220294    0.023222601869
 N    0.900950569255   -4.672789115063   -0.043504892459
 C   -0.049473831419   -5.680214513659    0.032145411370
 H   -1.112263232070   -5.469938436286    0.111446264134
 C    0.572036282565   -6.917975969040   -0.010054353885
 H    0.181209978400   -7.929784873641    0.022652925780
 N    1.917197451984   -6.642336751257   -0.112527154214
 H    2.662781199192   -7.328570571233   -0.166805815952
 C    2.087901570019   -5.294661470112   -0.130756202001
 H    3.061534423637   -4.819814433723   -0.206650118021
