19

 C   -0.531434084809    6.707389782045    0.008087230126
 H   -0.140604084809    7.719199782045   -0.024622769874
 C    0.090075915191    5.469629782045   -0.034112769874
 H    1.152855915191    5.259349782045   -0.113422769874
 N   -1.876594084809    6.431749782045    0.110577230126
 H   -2.622174084809    7.117979782045    0.164857230126
 C   -2.047304084809    5.084079782045    0.128807230126
 H   -3.020934084809    4.609219782045    0.204707230126
 N   -0.860344084809    4.462199782045    0.041537230126
LI   -0.490034084809    2.541579782045    0.023657230126
 N    0.910880324357   -4.724289982563   -0.043984339466
 C   -0.039544076317   -5.731715381159    0.031665964363
 H   -1.102333476968   -5.521439303786    0.110966817127
 C    0.581966037667   -6.969476836540   -0.010533800892
 H    0.191139733502   -7.981285741141    0.022173478773
 N    1.927127207086   -6.693837618757   -0.113006601221
 H    2.672710954294   -7.380071438733   -0.167285262960
 C    2.097831325121   -5.346162337612   -0.131235649008
 H    3.071464178739   -4.871315301223   -0.207129565028
