19

 C   -0.549437126205    6.800762905548    0.008956486642
 H   -0.158607126205    7.812572905548   -0.023753513358
 C    0.072072873795    5.563002905548   -0.033243513358
 H    1.134852873795    5.352722905548   -0.112553513358
 N   -1.894597126205    6.525122905548    0.111446486642
 H   -2.640177126205    7.211352905548    0.165726486642
 C   -2.065307126205    5.177452905548    0.129676486642
 H   -3.038937126205    4.702592905548    0.205576486642
 N   -0.878347126205    4.555572905548    0.042406486642
LI   -0.508037126205    2.634952905548    0.024526486642
 N    0.930739834560   -4.827291717564   -0.044943233481
 C   -0.019684566113   -5.834717116159    0.030707070348
 H   -1.082473966764   -5.624441038786    0.110007923113
 C    0.601825547871   -7.072478571540   -0.011492694907
 H    0.210999243706   -8.084287476141    0.021214584759
 N    1.946986717290   -6.796839353758   -0.113965495235
 H    2.692570464498   -7.483073173733   -0.168244156974
 C    2.117690835325   -5.449164072612   -0.132194543023
 H    3.091323688943   -4.974317036223   -0.208088459043
