19

 C   -0.567440167600    6.894136029051    0.009825743157
 H   -0.176610167600    7.905946029051   -0.022884256843
 C    0.054069832400    5.656376029051   -0.032374256843
 H    1.116849832400    5.446096029051   -0.111684256843
 N   -1.912600167600    6.618496029051    0.112315743157
 H   -2.658180167600    7.304726029051    0.166595743157
 C   -2.083310167600    5.270826029051    0.130545743157
 H   -3.056940167600    4.795966029051    0.206445743157
 N   -0.896350167600    4.648946029051    0.043275743157
LI   -0.526040167600    2.728326029051    0.025395743157
 N    0.950599344764   -4.930293452564   -0.045902127495
 C    0.000174944091   -5.937718851159    0.029748176334
 H   -1.062614456560   -5.727442773786    0.109049029098
 C    0.621685058075   -7.175480306541   -0.012451588921
 H    0.230858753910   -8.187289211142    0.020255690745
 N    1.966846227494   -6.899841088758   -0.114924389250
 H    2.712429974702   -7.586074908733   -0.169203050988
 C    2.137550345529   -5.552165807612   -0.133153437037
 H    3.111183199147   -5.077318771223   -0.209047353057
