19

 C   -0.612447771088    7.127568837808    0.011998884445
 H   -0.221617771088    8.139378837808   -0.020711115555
 C    0.009062228912    5.889808837808   -0.030201115555
 H    1.071842228912    5.679528837808   -0.109511115555
 N   -1.957607771088    6.851928837808    0.114488884445
 H   -2.703187771088    7.538158837808    0.168768884445
 C   -2.128317771088    5.504258837808    0.132718884445
 H   -3.101947771088    5.029398837808    0.208618884445
 N   -0.941357771088    4.882378837808    0.045448884445
LI   -0.571047771088    2.961758837808    0.027568884445
 N    1.000248120274   -5.187797790064   -0.048299362531
 C    0.049823719601   -6.195223188659    0.027350941298
 H   -1.012965681050   -5.984947111286    0.106651794063
 C    0.671333833585   -7.432984644041   -0.014848823957
 H    0.280507529420   -8.444793548642    0.017858455709
 N    2.016495003004   -7.157345426258   -0.117321624286
 H    2.762078750212   -7.843579246234   -0.171600286024
 C    2.187199121039   -5.809670145112   -0.135550672073
 H    3.160831974657   -5.334823108724   -0.211444588093
