19

 C   -0.621449291785    7.174255399559    0.012433512702
 H   -0.230619291785    8.186065399559   -0.020276487298
 C    0.000060708215    5.936495399559   -0.029766487298
 H    1.062840708215    5.726215399559   -0.109076487298
 N   -1.966609291785    6.898615399559    0.114923512702
 H   -2.712189291785    7.584845399559    0.169203512702
 C   -2.137319291785    5.550945399559    0.133153512702
 H   -3.110949291785    5.076085399559    0.209053512702
 N   -0.950359291785    4.929065399559    0.045883512702
LI   -0.580049291785    3.008445399559    0.028003512702
 N    1.010177875376   -5.239298657564   -0.048778809538
 C    0.059753474703   -6.246724056159    0.026871494291
 H   -1.003035925948   -6.036447978786    0.106172347055
 C    0.681263588686   -7.484485511541   -0.015328270964
 H    0.290437284522   -8.496294416142    0.017379008702
 N    2.026424758106   -7.208846293758   -0.117801071293
 H    2.772008505314   -7.895080113734   -0.172079733031
 C    2.197128876141   -5.861171012612   -0.136030119080
 H    3.170761729759   -5.386323976224   -0.211924035100
