19

 C   -0.666456895273    7.407688208317    0.014606653990
 H   -0.275626895273    8.419498208317   -0.018103346010
 C   -0.044946895273    6.169928208317   -0.027593346010
 H    1.017833104727    5.959648208317   -0.106903346010
 N   -2.011616895273    7.132048208317    0.117096653990
 H   -2.757196895273    7.818278208317    0.171376653990
 C   -2.182326895273    5.784378208317    0.135326653990
 H   -3.155956895273    5.309518208317    0.211226653990
 N   -0.995366895273    5.162498208317    0.048056653990
LI   -0.625056895273    3.241878208317    0.030176653990
 N    1.059826650886   -5.496802995064   -0.051176044574
 C    0.109402250213   -6.504228393659    0.024474259255
 H   -0.953387150438   -6.293952316286    0.103775112020
 C    0.730912364196   -7.741989849041   -0.017725506000
 H    0.340086060032   -8.753798753642    0.014981773666
 N    2.076073533615   -7.466350631258   -0.120198306328
 H    2.821657280824   -8.152584451234   -0.174476968067
 C    2.246777651651   -6.118675350113   -0.138427354116
 H    3.220410505268   -5.643828313724   -0.214321270136
