19

 C   -0.684459936668    7.501061331819    0.015475910506
 H   -0.293629936668    8.512871331819   -0.017234089494
 C   -0.062949936668    6.263301331819   -0.026724089494
 H    0.999830063332    6.053021331819   -0.106034089494
 N   -2.029619936668    7.225421331819    0.117965910506
 H   -2.775199936668    7.911651331819    0.172245910506
 C   -2.200329936668    5.877751331819    0.136195910506
 H   -3.173959936668    5.402891331819    0.212095910506
 N   -1.013369936668    5.255871331819    0.048925910506
LI   -0.643059936668    3.335251331819    0.031045910506
 N    1.079686161090   -5.599804730064   -0.052134938588
 C    0.129261760416   -6.607230128660    0.023515365241
 H   -0.933527640234   -6.396954051286    0.102816218005
 C    0.750771874400   -7.844991584041   -0.018684400014
 H    0.359945570236   -8.856800488642    0.014022879651
 N    2.095933043819   -7.569352366258   -0.121157200343
 H    2.841516791028   -8.255586186234   -0.175435862081
 C    2.266637161854   -6.221677085113   -0.139386248130
 H    3.240270015472   -5.746830048724   -0.215280164150
