19

 C   -0.693461457366    7.547747893571    0.015910538763
 H   -0.302631457366    8.559557893571   -0.016799461237
 C   -0.071951457366    6.309987893571   -0.026289461237
 H    0.990828542634    6.099707893571   -0.105599461237
 N   -2.038621457366    7.272107893571    0.118400538763
 H   -2.784201457366    7.958337893571    0.172680538763
 C   -2.209331457366    5.924437893571    0.136630538763
 H   -3.182961457366    5.449577893571    0.212530538763
 N   -1.022371457366    5.302557893571    0.049360538763
LI   -0.652061457366    3.381937893571    0.031480538763
 N    1.089615916192   -5.651305597564   -0.052614385595
 C    0.139191515518   -6.658730996160    0.023035918234
 H   -0.923597885132   -6.448454918786    0.102336770998
 C    0.760701629502   -7.896492451541   -0.019163847021
 H    0.369875325338   -8.908301356142    0.013543432644
 N    2.105862798921   -7.620853233758   -0.121636647350
 H    2.851446546130   -8.307087053734   -0.175915309089
 C    2.276566916956   -6.273177952613   -0.139865695137
 H    3.250199770574   -5.798330916224   -0.215759611157
