19

 C   -0.711464498761    7.641121017074    0.016779795278
 H   -0.320634498761    8.652931017074   -0.015930204722
 C   -0.089954498761    6.403361017074   -0.025420204722
 H    0.972825501239    6.193081017074   -0.104730204722
 N   -2.056624498761    7.365481017074    0.119269795278
 H   -2.802204498761    8.051711017074    0.173549795278
 C   -2.227334498761    6.017811017074    0.137499795278
 H   -3.200964498761    5.542951017074    0.213399795278
 N   -1.040374498761    5.395931017074    0.050229795278
LI   -0.670064498761    3.475311017074    0.032349795278
 N    1.109475426396   -5.754307332564   -0.053573279610
 C    0.159051025722   -6.761732731160    0.022077024219
 H   -0.903738374928   -6.551456653787    0.101377876984
 C    0.780561139706   -7.999494186541   -0.020122741036
 H    0.389734835542   -9.011303091142    0.012584538630
 N    2.125722309125   -7.723854968758   -0.122595541364
 H    2.871306056334   -8.410088788734   -0.176874203103
 C    2.296426427160   -6.376179687613   -0.140824589152
 H    3.270059280778   -5.901332651224   -0.216718505172
