19

 C   -0.720466019458    7.687807578825    0.017214423536
 H   -0.329636019458    8.699617578825   -0.015495576464
 C   -0.098956019458    6.450047578825   -0.024985576464
 H    0.963823980542    6.239767578825   -0.104295576464
 N   -2.065626019458    7.412167578825    0.119704423536
 H   -2.811206019458    8.098397578825    0.173984423536
 C   -2.236336019458    6.064497578825    0.137934423536
 H   -3.209966019458    5.589637578825    0.213834423536
 N   -1.049376019458    5.442617578825    0.050664423536
LI   -0.679066019458    3.521997578825    0.032784423536
 N    1.119405181498   -5.805808200064   -0.054052726617
 C    0.168980780824   -6.813233598660    0.021597577212
 H   -0.893808619826   -6.602957521287    0.100898429977
 C    0.790490894808   -8.050995054041   -0.020602188043
 H    0.399664590643   -9.062803958642    0.012105091623
 N    2.135652064227   -7.775355836258   -0.123074988371
 H    2.881235811436   -8.461589656234   -0.177353650110
 C    2.306356182262   -6.427680555113   -0.141304036159
 H    3.279989035880   -5.952833518724   -0.217197952179
