19

 C   -0.738469060854    7.781180702328    0.018083680051
 H   -0.347639060854    8.792990702328   -0.014626319949
 C   -0.116959060854    6.543420702328   -0.024116319949
 H    0.945820939146    6.333140702328   -0.103426319949
 N   -2.083629060854    7.505540702328    0.120573680051
 H   -2.829209060854    8.191770702328    0.174853680051
 C   -2.254339060854    6.157870702328    0.138803680051
 H   -3.227969060854    5.683010702328    0.214703680051
 N   -1.067379060854    5.535990702328    0.051533680051
LI   -0.697069060854    3.615370702328    0.033653680051
 N    1.139264691702   -5.908809935064   -0.055011620631
 C    0.188840291028   -6.916235333660    0.020638683198
 H   -0.873949109622   -6.705959256287    0.099939535962
 C    0.810350405012   -8.153996789041   -0.021561082057
 H    0.419524100847   -9.165805693642    0.011146197608
 N    2.155511574431   -7.878357571258   -0.124033882386
 H    2.901095321639   -8.564591391234   -0.178312544124
 C    2.326215692466   -6.530682290113   -0.142262930173
 H    3.299848546084   -6.055835253724   -0.218156846193
