19

 C   -0.747470581551    7.827867264079    0.018518308309
 H   -0.356640581551    8.839677264079   -0.014191691691
 C   -0.125960581551    6.590107264079   -0.023681691691
 H    0.936819418449    6.379827264079   -0.102991691691
 N   -2.092630581551    7.552227264079    0.121008308309
 H   -2.838210581551    8.238457264079    0.175288308309
 C   -2.263340581551    6.204557264079    0.139238308309
 H   -3.236970581551    5.729697264079    0.215138308309
 N   -1.076380581551    5.582677264079    0.051968308309
LI   -0.706070581551    3.662057264079    0.034088308309
 N    1.149194446804   -5.960310802565   -0.055491067638
 C    0.198770046130   -6.967736201160    0.020159236191
 H   -0.864019354520   -6.757460123787    0.099460088955
 C    0.820280160114   -8.205497656541   -0.022040529064
 H    0.429453855949   -9.217306561142    0.010666750601
 N    2.165441329533   -7.929858438758   -0.124513329393
 H    2.911025076741   -8.616092258734   -0.178791991132
 C    2.336145447568   -6.582183157613   -0.142742377180
 H    3.309778301186   -6.107336121224   -0.218636293200
