14

 P   -0.132177002940    0.146928931255   -0.188190508488
 O   -0.719177002940    1.196928931255    0.766809491512
 O   -0.398177002940    0.194928931255   -1.700190508488
 O    1.530822997060   -0.027071068745    0.098809491512
 O   -0.447177002940   -1.411071068745    0.403809491512
 C    2.267822997060    1.137928931255   -0.278190508488
 H    1.936822997060    2.020928931255    0.297809491512
 H    2.152822997060    1.348928931255   -1.356190508488
 H    3.327822997060    0.935928931255   -0.058190508488
 C   -1.838177002940   -1.734071068745    0.353809491512
 H   -2.216177002940   -1.707071068745   -0.684190508488
 H   -2.431177002940   -1.035071068745    0.969809491512
 H   -1.948177002940   -2.754071068745    0.753809491512
LI   -0.192552043961    0.647493763031    1.694595646021
