14

 P   -0.139173867055    0.154228857219   -0.200517295397
 O   -0.726173867055    1.204228857219    0.754482704603
 O   -0.405173867055    0.202228857219   -1.712517295397
 O    1.523826132945   -0.019771142781    0.086482704603
 O   -0.454173867055   -1.403771142781    0.391482704603
 C    2.260826132945    1.145228857219   -0.290517295397
 H    1.929826132945    2.028228857219    0.285482704603
 H    2.145826132945    1.356228857219   -1.368517295397
 H    3.320826132945    0.943228857219   -0.070517295397
 C   -1.845173867055   -1.726771142781    0.341482704603
 H   -2.223173867055   -1.699771142781   -0.696517295397
 H   -2.438173867055   -1.027771142781    0.957482704603
 H   -1.955173867055   -2.746771142781    0.741482704603
LI   -0.067892668330    0.517434896939    1.914215397740
