14

 P   -0.337418350296    0.361060092887   -0.549776257819
 O   -0.924418350296    1.411060092887    0.405223742181
 O   -0.603418350296    0.409060092887   -2.061776257819
 O    1.325581649704    0.187060092887   -0.262776257819
 O   -0.652418350296   -1.196939907113    0.042223742181
 C    2.062581649704    1.352060092887   -0.639776257819
 H    1.731581649704    2.235060092887   -0.063776257819
 H    1.947581649704    1.563060092887   -1.717776257819
 H    3.122581649704    1.150060092887   -0.419776257819
 C   -2.043418350296   -1.519939907113   -0.007776257819
 H   -2.421418350296   -1.492939907113   -1.045776257819
 H   -2.636418350296   -0.820939907113    0.608223742181
 H   -2.153418350296   -2.539939907113    0.392223742181
LI    3.464122974532   -3.167566308980    8.136775029756
