14

 P   -0.162496747436    0.178561943769   -0.241606585093
 O   -0.749496747436    1.228561943769    0.713393414907
 O   -0.428496747436    0.226561943769   -1.753606585093
 O    1.500503252564    0.004561943769    0.045393414907
 O   -0.477496747436   -1.379438056231    0.350393414907
 C    2.237503252564    1.169561943769   -0.331606585093
 H    1.906503252564    2.052561943769    0.244393414907
 H    2.122503252564    1.380561943769   -1.409606585093
 H    3.297503252564    0.967561943769   -0.111606585093
 C   -1.868496747436   -1.702438056231    0.300393414907
 H   -2.246496747436   -1.675438056231   -0.737606585093
 H   -2.461496747436   -1.003438056231    0.916393414907
 H   -1.978496747436   -2.722438056231    0.700393414907
LI    0.347638583771    0.083905343302    2.646281236800
