14

 P   -0.169493611550    0.185861869733   -0.253933372002
 O   -0.756493611550    1.235861869733    0.701066627998
 O   -0.435493611550    0.233861869733   -1.765933372002
 O    1.493506388450    0.011861869733    0.033066627998
 O   -0.484493611550   -1.372138130267    0.338066627998
 C    2.230506388450    1.176861869733   -0.343933372002
 H    1.899506388450    2.059861869733    0.232066627998
 H    2.115506388450    1.387861869733   -1.421933372002
 H    3.290506388450    0.974861869733   -0.123933372002
 C   -1.875493611550   -1.695138130267    0.288066627998
 H   -2.253493611550   -1.668138130267   -0.749933372002
 H   -2.468493611550   -0.996138130267    0.904066627998
 H   -1.985493611550   -2.715138130267    0.688066627998
LI    0.472297959401   -0.046153522790    2.865900988519
