14

 P   -0.171825899588    0.188295178388   -0.258042300972
 O   -0.758825899588    1.238295178388    0.696957699028
 O   -0.437825899588    0.236295178388   -1.770042300972
 O    1.491174100412    0.014295178388    0.028957699028
 O   -0.486825899588   -1.369704821612    0.333957699028
 C    2.228174100412    1.179295178388   -0.348042300972
 H    1.897174100412    2.062295178388    0.227957699028
 H    2.113174100412    1.390295178388   -1.426042300972
 H    3.288174100412    0.977295178388   -0.128042300972
 C   -1.877825899588   -1.692704821612    0.283957699028
 H   -2.255825899588   -1.665704821612   -0.754042300972
 H   -2.470825899588   -0.993704821612    0.899957699028
 H   -1.987825899588   -2.712704821612    0.683957699028
LI    0.513851084612   -0.089506478153    2.939107572425
