14

 P   -0.178822763703    0.195595104353   -0.270369087881
 O   -0.765822763703    1.245595104353    0.684630912119
 O   -0.444822763703    0.243595104353   -1.782369087881
 O    1.484177236297    0.021595104353    0.016630912119
 O   -0.493822763703   -1.362404895647    0.321630912119
 C    2.221177236297    1.186595104353   -0.360369087881
 H    1.890177236297    2.069595104353    0.215630912119
 H    2.106177236297    1.397595104353   -1.438369087881
 H    3.281177236297    0.984595104353   -0.140369087881
 C   -1.884822763703   -1.685404895647    0.271630912119
 H   -2.262822763703   -1.658404895647   -0.766369087881
 H   -2.477822763703   -0.986404895647    0.887630912119
 H   -1.994822763703   -2.705404895647    0.671630912119
LI    0.638510460242   -0.219565344245    3.158727324143
