14

 P   -0.181155051741    0.198028413008   -0.274478016851
 O   -0.768155051741    1.248028413008    0.680521983149
 O   -0.447155051741    0.246028413008   -1.786478016851
 O    1.481844948259    0.024028413008    0.012521983149
 O   -0.496155051741   -1.359971586992    0.317521983149
 C    2.218844948259    1.189028413008   -0.364478016851
 H    1.887844948259    2.072028413008    0.211521983149
 H    2.103844948259    1.400028413008   -1.442478016851
 H    3.278844948259    0.987028413008   -0.144478016851
 C   -1.887155051741   -1.682971586992    0.267521983149
 H   -2.265155051741   -1.655971586992   -0.770478016851
 H   -2.480155051741   -0.983971586992    0.883521983149
 H   -1.997155051741   -2.702971586992    0.667521983149
LI    0.680063585452   -0.262918299608    3.231933908049
