14

 P   -0.185819627817    0.202895030318   -0.282695874790
 O   -0.772819627817    1.252895030318    0.672304125210
 O   -0.451819627817    0.250895030318   -1.794695874790
 O    1.477180372183    0.028895030318    0.004304125210
 O   -0.500819627817   -1.355104969682    0.309304125210
 C    2.214180372183    1.193895030318   -0.372695874790
 H    1.883180372183    2.076895030318    0.203304125210
 H    2.099180372183    1.404895030318   -1.450695874790
 H    3.274180372183    0.991895030318   -0.152695874790
 C   -1.891819627817   -1.678104969682    0.259304125210
 H   -2.269819627817   -1.651104969682   -0.778695874790
 H   -2.484819627817   -0.979104969682    0.875304125210
 H   -2.001819627817   -2.698104969682    0.659304125210
LI    0.763169835872   -0.349624210336    3.378347075861
