14

 P   -0.188151915855    0.205328338973   -0.286804803760
 O   -0.775151915855    1.255328338973    0.668195196240
 O   -0.454151915855    0.253328338973   -1.798804803760
 O    1.474848084145    0.031328338973    0.000195196240
 O   -0.503151915855   -1.352671661027    0.305195196240
 C    2.211848084145    1.196328338973   -0.376804803760
 H    1.880848084145    2.079328338973    0.199195196240
 H    2.096848084145    1.407328338973   -1.454804803760
 H    3.271848084145    0.994328338973   -0.156804803760
 C   -1.894151915855   -1.675671661027    0.255195196240
 H   -2.272151915855   -1.648671661027   -0.782804803760
 H   -2.487151915855   -0.976671661027    0.871195196240
 H   -2.004151915855   -2.695671661027    0.655195196240
LI    0.804722961083   -0.392977165700    3.451553659767
