14

 P   -0.190484203893    0.207761647627   -0.290913732730
 O   -0.777484203893    1.257761647627    0.664086267270
 O   -0.456484203893    0.255761647627   -1.802913732730
 O    1.472515796107    0.033761647627   -0.003913732730
 O   -0.505484203893   -1.350238352373    0.301086267270
 C    2.209515796107    1.198761647627   -0.380913732730
 H    1.878515796107    2.081761647627    0.195086267270
 H    2.094515796107    1.409761647627   -1.458913732730
 H    3.269515796107    0.996761647627   -0.160913732730
 C   -1.896484203893   -1.673238352373    0.251086267270
 H   -2.274484203893   -1.646238352373   -0.786913732730
 H   -2.489484203893   -0.974238352373    0.867086267270
 H   -2.006484203893   -2.693238352373    0.651086267270
LI    0.846276086293   -0.436330121063    3.524760243673
