14

 P   -0.192816491932    0.210194956282   -0.295022661699
 O   -0.779816491932    1.260194956282    0.659977338301
 O   -0.458816491932    0.258194956282   -1.807022661699
 O    1.470183508068    0.036194956282   -0.008022661699
 O   -0.507816491932   -1.347805043718    0.296977338301
 C    2.207183508068    1.201194956282   -0.385022661699
 H    1.876183508068    2.084194956282    0.190977338301
 H    2.092183508068    1.412194956282   -1.463022661699
 H    3.267183508068    0.999194956282   -0.165022661699
 C   -1.898816491932   -1.670805043718    0.246977338301
 H   -2.276816491932   -1.643805043718   -0.791022661699
 H   -2.491816491932   -0.971805043718    0.862977338301
 H   -2.008816491932   -2.690805043718    0.646977338301
LI    0.887829211503   -0.479683076427    3.597966827579
