14

 P   -0.197481068008    0.215061573592   -0.303240519639
 O   -0.784481068008    1.265061573592    0.651759480361
 O   -0.463481068008    0.263061573592   -1.815240519639
 O    1.465518931992    0.041061573592   -0.016240519639
 O   -0.512481068008   -1.342938426408    0.288759480361
 C    2.202518931992    1.206061573592   -0.393240519639
 H    1.871518931992    2.089061573592    0.182759480361
 H    2.087518931992    1.417061573592   -1.471240519639
 H    3.262518931992    1.004061573592   -0.173240519639
 C   -1.903481068008   -1.665938426408    0.238759480361
 H   -2.281481068008   -1.638938426408   -0.799240519639
 H   -2.496481068008   -0.966938426408    0.854759480361
 H   -2.013481068008   -2.685938426408    0.638759480361
LI    0.970935461923   -0.566388987155    3.744379995391
