14

 P   -0.202145644084    0.219928190902   -0.311458377578
 O   -0.789145644084    1.269928190902    0.643541622422
 O   -0.468145644084    0.267928190902   -1.823458377578
 O    1.460854355916    0.045928190902   -0.024458377578
 O   -0.517145644084   -1.338071809098    0.280541622422
 C    2.197854355916    1.210928190902   -0.401458377578
 H    1.866854355916    2.093928190902    0.174541622422
 H    2.082854355916    1.421928190902   -1.479458377578
 H    3.257854355916    1.008928190902   -0.181458377578
 C   -1.908145644084   -1.661071809098    0.230541622422
 H   -2.286145644084   -1.634071809098   -0.807458377578
 H   -2.501145644084   -0.962071809098    0.846541622422
 H   -2.018145644084   -2.681071809098    0.630541622422
LI    1.054041712343   -0.653094897882    3.890793163204
