14

 P   -0.204477932122    0.222361499557   -0.315567306548
 O   -0.791477932122    1.272361499557    0.639432693452
 O   -0.470477932122    0.270361499557   -1.827567306548
 O    1.458522067878    0.048361499557   -0.028567306548
 O   -0.519477932122   -1.335638500443    0.276432693452
 C    2.195522067878    1.213361499557   -0.405567306548
 H    1.864522067878    2.096361499557    0.170432693452
 H    2.080522067878    1.424361499557   -1.483567306548
 H    3.255522067878    1.011361499557   -0.185567306548
 C   -1.910477932122   -1.658638500443    0.226432693452
 H   -2.288477932122   -1.631638500443   -0.811567306548
 H   -2.503477932122   -0.959638500443    0.842432693452
 H   -2.020477932122   -2.678638500443    0.626432693452
LI    1.095594837554   -0.696447853246    3.963999747110
