14

 P   -0.206810220160    0.224794808212   -0.319676235517
 O   -0.793810220160    1.274794808212    0.635323764483
 O   -0.472810220160    0.272794808212   -1.831676235517
 O    1.456189779840    0.050794808212   -0.032676235517
 O   -0.521810220160   -1.333205191788    0.272323764483
 C    2.193189779840    1.215794808212   -0.409676235517
 H    1.862189779840    2.098794808212    0.166323764483
 H    2.078189779840    1.426794808212   -1.487676235517
 H    3.253189779840    1.013794808212   -0.189676235517
 C   -1.912810220160   -1.656205191788    0.222323764483
 H   -2.290810220160   -1.629205191788   -0.815676235517
 H   -2.505810220160   -0.957205191788    0.838323764483
 H   -2.022810220160   -2.676205191788    0.622323764483
LI    1.137147962764   -0.739800808610    4.037206331016
