14

 P   -0.216139372313    0.234528042832   -0.336111951396
 O   -0.803139372313    1.284528042832    0.618888048604
 O   -0.482139372313    0.282528042832   -1.848111951396
 O    1.446860627687    0.060528042832   -0.049111951396
 O   -0.531139372313   -1.323471957168    0.255888048604
 C    2.183860627687    1.225528042832   -0.426111951396
 H    1.852860627687    2.108528042832    0.149888048604
 H    2.068860627687    1.436528042832   -1.504111951396
 H    3.243860627687    1.023528042832   -0.206111951396
 C   -1.922139372313   -1.646471957168    0.205888048604
 H   -2.300139372313   -1.619471957168   -0.832111951396
 H   -2.515139372313   -0.947471957168    0.821888048604
 H   -2.032139372313   -2.666471957168    0.605888048604
LI    1.303360463604   -0.913212630065    4.330032666640
