14

 P   -0.218471660351    0.236961351486   -0.340220880366
 O   -0.805471660351    1.286961351486    0.614779119634
 O   -0.484471660351    0.284961351486   -1.852220880366
 O    1.444528339649    0.062961351486   -0.053220880366
 O   -0.533471660351   -1.321038648514    0.251779119634
 C    2.181528339649    1.227961351486   -0.430220880366
 H    1.850528339649    2.110961351486    0.145779119634
 H    2.066528339649    1.438961351486   -1.508220880366
 H    3.241528339649    1.025961351486   -0.210220880366
 C   -1.924471660351   -1.644038648514    0.201779119634
 H   -2.302471660351   -1.617038648514   -0.836220880366
 H   -2.517471660351   -0.945038648514    0.817779119634
 H   -2.034471660351   -2.664038648514    0.601779119634
LI    1.344913588814   -0.956565585429    4.403239250546
