14

 P   -0.220803948389    0.239394660141   -0.344329809335
 O   -0.807803948389    1.289394660141    0.610670190665
 O   -0.486803948389    0.287394660141   -1.856329809335
 O    1.442196051611    0.065394660141   -0.057329809335
 O   -0.535803948389   -1.318605339859    0.247670190665
 C    2.179196051611    1.230394660141   -0.434329809335
 H    1.848196051611    2.113394660141    0.141670190665
 H    2.064196051611    1.441394660141   -1.512329809335
 H    3.239196051611    1.028394660141   -0.214329809335
 C   -1.926803948389   -1.641605339859    0.197670190665
 H   -2.304803948389   -1.614605339859   -0.840329809335
 H   -2.519803948389   -0.942605339859    0.813670190665
 H   -2.036803948389   -2.661605339859    0.597670190665
LI    1.386466714025   -0.999918540792    4.476445834452
