14

 P   -0.227800812504    0.246694586106   -0.356656596244
 O   -0.814800812504    1.296694586106    0.598343403756
 O   -0.493800812504    0.294694586106   -1.868656596244
 O    1.435199187496    0.072694586106   -0.069656596244
 O   -0.542800812504   -1.311305413894    0.235343403756
 C    2.172199187496    1.237694586106   -0.446656596244
 H    1.841199187496    2.120694586106    0.129343403756
 H    2.057199187496    1.448694586106   -1.524656596244
 H    3.232199187496    1.035694586106   -0.226656596244
 C   -1.933800812504   -1.634305413894    0.185343403756
 H   -2.311800812504   -1.607305413894   -0.852656596244
 H   -2.526800812504   -0.935305413894    0.801343403756
 H   -2.043800812504   -2.654305413894    0.585343403756
LI    1.511126089655   -1.129977406884    4.696065586170
