14

 P   -0.230133100542    0.249127894761   -0.360765525214
 O   -0.817133100542    1.299127894761    0.594234474786
 O   -0.496133100542    0.297127894761   -1.872765525214
 O    1.432866899458    0.075127894761   -0.073765525214
 O   -0.545133100542   -1.308872105239    0.231234474786
 C    2.169866899458    1.240127894761   -0.450765525214
 H    1.838866899458    2.123127894761    0.125234474786
 H    2.054866899458    1.451127894761   -1.528765525214
 H    3.229866899458    1.038127894761   -0.230765525214
 C   -1.936133100542   -1.631872105239    0.181234474786
 H   -2.314133100542   -1.604872105239   -0.856765525214
 H   -2.529133100542   -0.932872105239    0.797234474786
 H   -2.046133100542   -2.651872105239    0.581234474786
LI    1.552679214865   -1.173330362247    4.769272170077
