14

 P   -0.251123692885    0.271027672655   -0.397745885941
 O   -0.838123692885    1.321027672655    0.557254114059
 O   -0.517123692885    0.319027672655   -1.909745885941
 O    1.411876307115    0.097027672655   -0.110745885941
 O   -0.566123692885   -1.286972327345    0.194254114059
 C    2.148876307115    1.262027672655   -0.487745885941
 H    1.817876307115    2.145027672655    0.088254114059
 H    2.033876307115    1.473027672655   -1.565745885941
 H    3.208876307115    1.060027672655   -0.267745885941
 C   -1.957123692885   -1.609972327345    0.144254114059
 H   -2.335123692885   -1.582972327345   -0.893745885941
 H   -2.550123692885   -0.910972327345    0.760254114059
 H   -2.067123692885   -2.629972327345    0.544254114059
LI    1.926657341756   -1.563506960521    5.428131425231
