14

 P   -0.258120556999    0.278327598620   -0.410072672850
 O   -0.845120556999    1.328327598620    0.544927327150
 O   -0.524120556999    0.326327598620   -1.922072672850
 O    1.404879443001    0.104327598620   -0.123072672850
 O   -0.573120556999   -1.279672401380    0.181927327150
 C    2.141879443001    1.269327598620   -0.500072672850
 H    1.810879443001    2.152327598620    0.075927327150
 H    2.026879443001    1.480327598620   -1.578072672850
 H    3.201879443001    1.067327598620   -0.280072672850
 C   -1.964120556999   -1.602672401380    0.131927327150
 H   -2.342120556999   -1.575672401380   -0.906072672850
 H   -2.557120556999   -0.903672401380    0.747927327150
 H   -2.074120556999   -2.622672401380    0.531927327150
LI    2.051316717387   -1.693565826612    5.647751176949
