14

 P   -0.265117421114    0.285627524585   -0.422399459759
 O   -0.852117421114    1.335627524585    0.532600540241
 O   -0.531117421114    0.333627524585   -1.934399459759
 O    1.397882578886    0.111627524585   -0.135399459759
 O   -0.580117421114   -1.272372475415    0.169600540241
 C    2.134882578886    1.276627524585   -0.512399459759
 H    1.803882578886    2.159627524585    0.063600540241
 H    2.019882578886    1.487627524585   -1.590399459759
 H    3.194882578886    1.074627524585   -0.292399459759
 C   -1.971117421114   -1.595372475415    0.119600540241
 H   -2.349117421114   -1.568372475415   -0.918399459759
 H   -2.564117421114   -0.896372475415    0.735600540241
 H   -2.081117421114   -2.615372475415    0.519600540241
LI    2.175976093017   -1.823624692704    5.867370928668
