14

 P   -0.267449709152    0.288060833240   -0.426508388729
 O   -0.854449709152    1.338060833240    0.528491611271
 O   -0.533449709152    0.336060833240   -1.938508388729
 O    1.395550290848    0.114060833240   -0.139508388729
 O   -0.582449709152   -1.269939166760    0.165491611271
 C    2.132550290848    1.279060833240   -0.516508388729
 H    1.801550290848    2.162060833240    0.059491611271
 H    2.017550290848    1.490060833240   -1.594508388729
 H    3.192550290848    1.077060833240   -0.296508388729
 C   -1.973449709152   -1.592939166760    0.115491611271
 H   -2.351449709152   -1.565939166760   -0.922508388729
 H   -2.566449709152   -0.893939166760    0.731491611271
 H   -2.083449709152   -2.612939166760    0.515491611271
LI    2.217529218227   -1.866977648067    5.940577512574
