14

 P   -0.274446573266    0.295360759204   -0.438835175638
 O   -0.861446573266    1.345360759204    0.516164824362
 O   -0.540446573266    0.343360759204   -1.950835175638
 O    1.388553426734    0.121360759204   -0.151835175638
 O   -0.589446573266   -1.262639240796    0.153164824362
 C    2.125553426734    1.286360759204   -0.528835175638
 H    1.794553426734    2.169360759204    0.047164824362
 H    2.010553426734    1.497360759204   -1.606835175638
 H    3.185553426734    1.084360759204   -0.308835175638
 C   -1.980446573266   -1.585639240796    0.103164824362
 H   -2.358446573266   -1.558639240796   -0.934835175638
 H   -2.573446573266   -0.886639240796    0.719164824362
 H   -2.090446573266   -2.605639240796    0.503164824362
LI    2.342188593858   -1.997036514159    6.160197264292
