14

 P   -0.276778861304    0.297794067859   -0.442944104608
 O   -0.863778861304    1.347794067859    0.512055895392
 O   -0.542778861304    0.345794067859   -1.954944104608
 O    1.386221138696    0.123794067859   -0.155944104608
 O   -0.591778861304   -1.260205932141    0.149055895392
 C    2.123221138696    1.288794067859   -0.532944104608
 H    1.792221138696    2.171794067859    0.043055895392
 H    2.008221138696    1.499794067859   -1.610944104608
 H    3.183221138696    1.086794067859   -0.312944104608
 C   -1.982778861304   -1.583205932141    0.099055895392
 H   -2.360778861304   -1.556205932141   -0.938944104608
 H   -2.575778861304   -0.884205932141    0.715055895392
 H   -2.092778861304   -2.603205932141    0.499055895392
LI    2.383741719068   -2.040389469522    6.233403848198
