14

 P   -0.286108013457    0.307527302479   -0.459379820486
 O   -0.873108013457    1.357527302479    0.495620179514
 O   -0.552108013457    0.355527302479   -1.971379820486
 O    1.376891986543    0.133527302479   -0.172379820486
 O   -0.601108013457   -1.250472697521    0.132620179514
 C    2.113891986543    1.298527302479   -0.549379820486
 H    1.782891986543    2.181527302479    0.026620179514
 H    1.998891986543    1.509527302479   -1.627379820486
 H    3.173891986543    1.096527302479   -0.329379820486
 C   -1.992108013457   -1.573472697521    0.082620179514
 H   -2.370108013457   -1.546472697521   -0.955379820486
 H   -2.585108013457   -0.874472697521    0.698620179514
 H   -2.102108013457   -2.593472697521    0.482620179514
LI    2.549954219909   -2.213801290978    6.526230183822
