14

 P   -0.295437165609    0.317260537099   -0.475815536365
 O   -0.882437165609    1.367260537099    0.479184463635
 O   -0.561437165609    0.365260537099   -1.987815536365
 O    1.367562834391    0.143260537099   -0.188815536365
 O   -0.610437165609   -1.240739462901    0.116184463635
 C    2.104562834391    1.308260537099   -0.565815536365
 H    1.773562834391    2.191260537099    0.010184463635
 H    1.989562834391    1.519260537099   -1.643815536365
 H    3.164562834391    1.106260537099   -0.345815536365
 C   -2.001437165609   -1.563739462901    0.066184463635
 H   -2.379437165609   -1.536739462901   -0.971815536365
 H   -2.594437165609   -0.864739462901    0.682184463635
 H   -2.111437165609   -2.583739462901    0.466184463635
LI    2.716166720749   -2.387213112433    6.819056519447
