14

 P   -0.302434029724    0.324560463063   -0.488142323274
 O   -0.889434029724    1.374560463063    0.466857676726
 O   -0.568434029724    0.372560463063   -2.000142323274
 O    1.360565970276    0.150560463063   -0.201142323274
 O   -0.617434029724   -1.233439536937    0.103857676726
 C    2.097565970276    1.315560463063   -0.578142323274
 H    1.766565970276    2.198560463063   -0.002142323274
 H    1.982565970276    1.526560463063   -1.656142323274
 H    3.157565970276    1.113560463063   -0.358142323274
 C   -2.008434029724   -1.556439536937    0.053857676726
 H   -2.386434029724   -1.529439536937   -0.984142323274
 H   -2.601434029724   -0.857439536937    0.669857676726
 H   -2.118434029724   -2.576439536937    0.453857676726
LI    2.840826096380   -2.517271978524    7.038676271165
