14

 P   -0.304766317762    0.326993771718   -0.492251252244
 O   -0.891766317762    1.376993771718    0.462748747756
 O   -0.570766317762    0.374993771718   -2.004251252244
 O    1.358233682238    0.152993771718   -0.205251252244
 O   -0.619766317762   -1.231006228282    0.099748747756
 C    2.095233682238    1.317993771718   -0.582251252244
 H    1.764233682238    2.200993771718   -0.006251252244
 H    1.980233682238    1.528993771718   -1.660251252244
 H    3.155233682238    1.115993771718   -0.362251252244
 C   -2.010766317762   -1.554006228282    0.049748747756
 H   -2.388766317762   -1.527006228282   -0.988251252244
 H   -2.603766317762   -0.855006228282    0.665748747756
 H   -2.120766317762   -2.574006228282    0.449748747756
LI    2.882379221590   -2.560624933888    7.111882855071
