14

 P   -0.309430893838    0.331860389028   -0.500469110183
 O   -0.896430893838    1.381860389028    0.454530889817
 O   -0.575430893838    0.379860389028   -2.012469110183
 O    1.353569106162    0.157860389028   -0.213469110183
 O   -0.624430893838   -1.226139610972    0.091530889817
 C    2.090569106162    1.322860389028   -0.590469110183
 H    1.759569106162    2.205860389028   -0.014469110183
 H    1.975569106162    1.533860389028   -1.668469110183
 H    3.150569106162    1.120860389028   -0.370469110183
 C   -2.015430893838   -1.549139610972    0.041530889817
 H   -2.393430893838   -1.522139610972   -0.996469110183
 H   -2.608430893838   -0.850139610972    0.657530889817
 H   -2.125430893838   -2.569139610972    0.441530889817
LI    2.965485472010   -2.647330844615    7.258296022883
