14

 P   -0.314095469914    0.336727006338   -0.508686968122
 O   -0.901095469914    1.386727006338    0.446313031878
 O   -0.580095469914    0.384727006338   -2.020686968122
 O    1.348904530086    0.162727006338   -0.221686968122
 O   -0.629095469914   -1.221272993662    0.083313031878
 C    2.085904530086    1.327727006338   -0.598686968122
 H    1.754904530086    2.210727006338   -0.022686968122
 H    1.970904530086    1.538727006338   -1.676686968122
 H    3.145904530086    1.125727006338   -0.378686968122
 C   -2.020095469914   -1.544272993662    0.033313031878
 H   -2.398095469914   -1.517272993662   -1.004686968122
 H   -2.613095469914   -0.845272993662    0.649313031878
 H   -2.130095469914   -2.564272993662    0.433313031878
LI    3.048591722430   -2.734036755343    7.404709190695
