14

 P   -0.316427757953    0.339160314993   -0.512795897092
 O   -0.903427757953    1.389160314993    0.442204102908
 O   -0.582427757953    0.387160314993   -2.024795897092
 O    1.346572242047    0.165160314993   -0.225795897092
 O   -0.631427757953   -1.218839685007    0.079204102908
 C    2.083572242047    1.330160314993   -0.602795897092
 H    1.752572242047    2.213160314993   -0.026795897092
 H    1.968572242047    1.541160314993   -1.680795897092
 H    3.143572242047    1.128160314993   -0.382795897092
 C   -2.022427757953   -1.541839685007    0.029204102908
 H   -2.400427757953   -1.514839685007   -1.008795897092
 H   -2.615427757953   -0.842839685007    0.645204102908
 H   -2.132427757953   -2.561839685007    0.429204102908
LI    3.090144847640   -2.777389710706    7.477915774601
