14

 P   -0.325756910105    0.348893549612   -0.529231612971
 O   -0.912756910105    1.398893549612    0.425768387029
 O   -0.591756910105    0.396893549612   -2.041231612971
 O    1.337243089895    0.174893549612   -0.242231612971
 O   -0.640756910105   -1.209106450388    0.062768387029
 C    2.074243089895    1.339893549612   -0.619231612971
 H    1.743243089895    2.222893549612   -0.043231612971
 H    1.959243089895    1.550893549612   -1.697231612971
 H    3.134243089895    1.137893549612   -0.399231612971
 C   -2.031756910105   -1.532106450388    0.012768387029
 H   -2.409756910105   -1.505106450388   -1.025231612971
 H   -2.624756910105   -0.833106450388    0.628768387029
 H   -2.141756910105   -2.552106450388    0.412768387029
LI    3.256357348481   -2.950801532161    7.770742110226
