7

 C   -0.357916466477    0.969800240175    0.000000000000
 O   -0.357916466477   -0.465085759825    0.000000000000
 H    0.561093533523   -0.761886759825    0.000000000000
 H   -1.411235466477    1.277789240175    0.000000000000
 H    0.130749533523    1.380733240175    0.899440000000
 H    0.130749533523    1.380733240175   -0.899440000000
LI    1.512697368404   -1.069214177151    0.000000000000
