7

 C   -0.375017072145    0.975323005828    0.000000000000
 O   -0.375017072145   -0.459562994172    0.000000000000
 H    0.543992927855   -0.756363994172    0.000000000000
 H   -1.428336072145    1.283312005828    0.000000000000
 H    0.113648927855    1.386256005828    0.899440000000
 H    0.113648927855    1.386256005828   -0.899440000000
LI    1.590757146224   -1.094424153231    0.000000000000
