7

 C   -0.409218283480    0.986368537134    0.000000000000
 O   -0.409218283480   -0.448517462866    0.000000000000
 H    0.509791716520   -0.745318462866    0.000000000000
 H   -1.462537283480    1.294357537134    0.000000000000
 H    0.079447716520    1.397301537134    0.899440000000
 H    0.079447716520    1.397301537134   -0.899440000000
LI    1.746876701865   -1.144844105390    0.000000000000
