7

 C   -0.426318889148    0.991891302787    0.000000000000
 O   -0.426318889148   -0.442994697213    0.000000000000
 H    0.492691110852   -0.739795697213    0.000000000000
 H   -1.479637889148    1.299880302787    0.000000000000
 H    0.062347110852    1.402824302787    0.899440000000
 H    0.062347110852    1.402824302787   -0.899440000000
LI    1.824936479685   -1.170054081469    0.000000000000
