7

 C   -0.477620706152    1.008459599746    0.000000000000
 O   -0.477620706152   -0.426426400254    0.000000000000
 H    0.441389293848   -0.723227400254    0.000000000000
 H   -1.530939706152    1.316448599746    0.000000000000
 H    0.011045293848    1.419392599746    0.899440000000
 H    0.011045293848    1.419392599746   -0.899440000000
LI    2.059115813146   -1.245684009708    0.000000000000
