7

 C   -0.494721311819    1.013982365399    0.000000000000
 O   -0.494721311819   -0.420903634601    0.000000000000
 H    0.424288688181   -0.717704634601    0.000000000000
 H   -1.548040311819    1.321971365399    0.000000000000
 H   -0.006055311819    1.424915365399    0.899440000000
 H   -0.006055311819    1.424915365399   -0.899440000000
LI    2.137175590966   -1.270893985787    0.000000000000
