7

 C   -1.896970976581    1.466849148950    0.000000000000
 O   -1.896970976581    0.031963148950    0.000000000000
 H   -0.977960976581   -0.264837851050    0.000000000000
 H   -2.950289976581    1.774838148950    0.000000000000
 H   -1.408304976581    1.877782148950    0.899440000000
 H   -1.408304976581    1.877782148950   -0.899440000000
LI    8.538077372227   -3.338112024307    0.000000000000
