7

 C   -0.528922523155    1.025027896705    0.000000000000
 O   -0.528922523155   -0.409858103295    0.000000000000
 H    0.390087476845   -0.706659103295    0.000000000000
 H   -1.582241523155    1.333016896705    0.000000000000
 H   -0.040256523155    1.435960896705    0.899440000000
 H   -0.040256523155    1.435960896705   -0.899440000000
LI    2.293295146607   -1.321313937946    0.000000000000
