7

 C   -0.546023128823    1.030550662358    0.000000000000
 O   -0.546023128823   -0.404335337642    0.000000000000
 H    0.372986871177   -0.701136337642    0.000000000000
 H   -1.599342128823    1.338539662358    0.000000000000
 H   -0.057357128823    1.441483662358    0.899440000000
 H   -0.057357128823    1.441483662358   -0.899440000000
LI    2.371354924427   -1.346523914026    0.000000000000
