7

 C   -0.563123734491    1.036073428011    0.000000000000
 O   -0.563123734491   -0.398812571989    0.000000000000
 H    0.355886265509   -0.695613571989    0.000000000000
 H   -1.616442734491    1.344062428011    0.000000000000
 H   -0.074457734491    1.447006428011    0.899440000000
 H   -0.074457734491    1.447006428011   -0.899440000000
LI    2.449414702247   -1.371733890105    0.000000000000
