7

 C   -0.580224340159    1.041596193664    0.000000000000
 O   -0.580224340159   -0.393289806336    0.000000000000
 H    0.338785659841   -0.690090806336    0.000000000000
 H   -1.633543340159    1.349585193664    0.000000000000
 H   -0.091558340159    1.452529193664    0.899440000000
 H   -0.091558340159    1.452529193664   -0.899440000000
LI    2.527474480067   -1.396943866185    0.000000000000
