7

 C   -0.682827974165    1.074732787583    0.000000000000
 O   -0.682827974165   -0.360153212417    0.000000000000
 H    0.236182025835   -0.656954212417    0.000000000000
 H   -1.736146974165    1.382721787583    0.000000000000
 H   -0.194161974165    1.485665787583    0.899440000000
 H   -0.194161974165    1.485665787583   -0.899440000000
LI    2.995833146989   -1.548203722662    0.000000000000
