7

 C   -0.717029185501    1.085778318889    0.000000000000
 O   -0.717029185501   -0.349107681111    0.000000000000
 H    0.201980814499   -0.645908681111    0.000000000000
 H   -1.770348185501    1.393767318889    0.000000000000
 H   -0.228363185501    1.496711318889    0.899440000000
 H   -0.228363185501    1.496711318889   -0.899440000000
LI    3.151952702629   -1.598623674821    0.000000000000
