7

 C   -0.734129791169    1.091301084542    0.000000000000
 O   -0.734129791169   -0.343584915458    0.000000000000
 H    0.184880208831   -0.640385915458    0.000000000000
 H   -1.787448791169    1.399290084542    0.000000000000
 H   -0.245463791169    1.502234084542    0.899440000000
 H   -0.245463791169    1.502234084542   -0.899440000000
LI    3.230012480450   -1.623833650900    0.000000000000
