7

 C   -0.785431608172    1.107869381501    0.000000000000
 O   -0.785431608172   -0.327016618499    0.000000000000
 H    0.133578391828   -0.623817618499    0.000000000000
 H   -1.838750608172    1.415858381501    0.000000000000
 H   -0.296765608172    1.518802381501    0.899440000000
 H   -0.296765608172    1.518802381501   -0.899440000000
LI    3.464191813910   -1.699463579139    0.000000000000
