7

 C   -0.802532213840    1.113392147154    0.000000000000
 O   -0.802532213840   -0.321493852846    0.000000000000
 H    0.116477786160   -0.618294852846    0.000000000000
 H   -1.855851213840    1.421381147154    0.000000000000
 H   -0.313866213840    1.524325147154    0.899440000000
 H   -0.313866213840    1.524325147154   -0.899440000000
LI    3.542251591731   -1.724673555218    0.000000000000
