7

 C   -0.819632819508    1.118914912807    0.000000000000
 O   -0.819632819508   -0.315971087193    0.000000000000
 H    0.099377180492   -0.612772087193    0.000000000000
 H   -1.872951819508    1.426903912807    0.000000000000
 H   -0.330966819508    1.529847912807    0.899440000000
 H   -0.330966819508    1.529847912807   -0.899440000000
LI    3.620311369551   -1.749883531298    0.000000000000
