7

 C   -0.888035242179    1.141005975419    0.000000000000
 O   -0.888035242179   -0.293880024581    0.000000000000
 H    0.030974757821   -0.590681024581    0.000000000000
 H   -1.941354242179    1.448994975419    0.000000000000
 H   -0.399369242179    1.551938975419    0.899440000000
 H   -0.399369242179    1.551938975419   -0.899440000000
LI    3.932550480832   -1.850723435616    0.000000000000
