7

 C   -0.922236453515    1.152051506725    0.000000000000
 O   -0.922236453515   -0.282834493275    0.000000000000
 H   -0.003226453515   -0.579635493275    0.000000000000
 H   -1.975555453515    1.460040506725    0.000000000000
 H   -0.433570453515    1.562984506725    0.899440000000
 H   -0.433570453515    1.562984506725   -0.899440000000
LI    4.088670036473   -1.901143387775    0.000000000000
