7

 C   -0.956437664851    1.163097038032    0.000000000000
 O   -0.956437664851   -0.271788961968    0.000000000000
 H   -0.037427664851   -0.568589961968    0.000000000000
 H   -2.009756664851    1.471086038032    0.000000000000
 H   -0.467771664851    1.574030038032    0.899440000000
 H   -0.467771664851    1.574030038032   -0.899440000000
LI    4.244789592113   -1.951563339934    0.000000000000
