7

 C   -1.007739481854    1.179665334991    0.000000000000
 O   -1.007739481854   -0.255220665009    0.000000000000
 H   -0.088729481854   -0.552021665009    0.000000000000
 H   -2.061058481854    1.487654334991    0.000000000000
 H   -0.519073481854    1.590598334991    0.899440000000
 H   -0.519073481854    1.590598334991   -0.899440000000
LI    4.478968925574   -2.027193268172    0.000000000000
