7

 C   -1.024840087522    1.185188100644    0.000000000000
 O   -1.024840087522   -0.249697899356    0.000000000000
 H   -0.105830087522   -0.546498899356    0.000000000000
 H   -2.078159087522    1.493177100644    0.000000000000
 H   -0.536174087522    1.596121100644    0.899440000000
 H   -0.536174087522    1.596121100644   -0.899440000000
LI    4.557028703394   -2.052403244252    0.000000000000
