7

 C   -1.059041298858    1.196233631950    0.000000000000
 O   -1.059041298858   -0.238652368050    0.000000000000
 H   -0.140031298858   -0.535453368050    0.000000000000
 H   -2.112360298858    1.504222631950    0.000000000000
 H   -0.570375298858    1.607166631950    0.899440000000
 H   -0.570375298858    1.607166631950   -0.899440000000
LI    4.713148259035   -2.102823196411    0.000000000000
