7

 C   -1.093242510193    1.207279163256    0.000000000000
 O   -1.093242510193   -0.227606836744    0.000000000000
 H   -0.174232510193   -0.524407836744    0.000000000000
 H   -2.146561510193    1.515268163256    0.000000000000
 H   -0.604576510193    1.618212163256    0.899440000000
 H   -0.604576510193    1.618212163256   -0.899440000000
LI    4.869267814675   -2.153243148570    0.000000000000
