7

 C   -1.144544327197    1.223847460215    0.000000000000
 O   -1.144544327197   -0.211038539785    0.000000000000
 H   -0.225534327197   -0.507839539785    0.000000000000
 H   -2.197863327197    1.531836460215    0.000000000000
 H   -0.655878327197    1.634780460215    0.899440000000
 H   -0.655878327197    1.634780460215   -0.899440000000
LI    5.103447148136   -2.228873076809    0.000000000000
