7

 C   -1.195846144200    1.240415757174    0.000000000000
 O   -1.195846144200   -0.194470242826    0.000000000000
 H   -0.276836144200   -0.491271242826    0.000000000000
 H   -2.249165144200    1.548404757174    0.000000000000
 H   -0.707180144200    1.651348757174    0.899440000000
 H   -0.707180144200    1.651348757174   -0.899440000000
LI    5.337626481597   -2.304503005047    0.000000000000
