26

 C    3.059562097459    1.244051171938    0.000000000000
 H    2.275682097459    2.003961171938    0.000000000000
 H    3.709612097459    1.364121171938    0.883450000000
 H    3.709612097459    1.364121171938   -0.883450000000
 C    2.527662097459   -0.168598828062    0.000000000000
 O    1.300812097459   -0.495648828062    0.000000000000
 N    3.512542097459   -1.071808828062    0.000000000000
 H    4.455642097459   -0.698748828062    0.000000000000
 C    3.382982097459   -2.524698828062    0.000000000000
 H    2.841742097459   -2.870418828062    0.888360000000
 H    2.841742097459   -2.870418828062   -0.888360000000
 H    4.396782097459   -2.939678828062    0.000000000000
RB   -0.717157902541    0.273261171938    2.111220000000
RB   -0.717157902541    0.273261171938   -2.111220000000
 O    0.366348478464   -0.139590202589    0.000000000000
 C   -0.860507406073   -0.466641771271    0.000000000000
 C   -1.392402936021   -1.879294179375    0.000000000000
 H   -0.608515697410   -2.639202525653    0.000000000000
 H   -2.042454551153   -1.999362162785   -0.883451226229
 H   -2.042454551153   -1.999362162785    0.883451226229
 N   -1.845390075318    0.436562010127    0.000000000000
 H   -2.788486561380    0.063506172515    0.000000000000
 C   -1.715832836327    1.889457022653    0.000000000000
 H   -1.174587820071    2.235176742978   -0.888361495878
 H   -1.174587820071    2.235176742978    0.888361495878
 H   -2.729626122101    2.304441320330    0.000000000000
