26

 C    3.145993070148    1.211118382787    0.000000000000
 H    2.362113070148    1.971028382787    0.000000000000
 H    3.796043070148    1.331188382787    0.883450000000
 H    3.796043070148    1.331188382787   -0.883450000000
 C    2.614093070148   -0.201531617213    0.000000000000
 O    1.387243070148   -0.528581617213    0.000000000000
 N    3.598973070148   -1.104741617213    0.000000000000
 H    4.542073070148   -0.731681617213    0.000000000000
 C    3.469413070148   -2.557631617213    0.000000000000
 H    2.928173070148   -2.903351617213    0.888360000000
 H    2.928173070148   -2.903351617213   -0.888360000000
 H    4.483213070148   -2.972611617213    0.000000000000
RB   -0.630726929852    0.240328382787    2.111220000000
RB   -0.630726929852    0.240328382787   -2.111220000000
 O    0.078994003554   -0.030099541551    0.000000000000
 C   -1.147861880983   -0.357151110233    0.000000000000
 C   -1.679757410931   -1.769803518337    0.000000000000
 H   -0.895870172320   -2.529711864615    0.000000000000
 H   -2.329809026062   -1.889871501747   -0.883451226229
 H   -2.329809026062   -1.889871501747    0.883451226229
 N   -2.132744550227    0.546052671165    0.000000000000
 H   -3.075841036290    0.172996833553    0.000000000000
 C   -2.003187311236    1.998947683691    0.000000000000
 H   -1.461942294981    2.344667404016   -0.888361495878
 H   -1.461942294981    2.344667404016    0.888361495878
 H   -3.016980597010    2.413931981369    0.000000000000
