26

 C    3.189208556492    1.194651988211    0.000000000000
 H    2.405328556492    1.954561988211    0.000000000000
 H    3.839258556492    1.314721988211    0.883450000000
 H    3.839258556492    1.314721988211   -0.883450000000
 C    2.657308556492   -0.217998011789    0.000000000000
 O    1.430458556492   -0.545048011789    0.000000000000
 N    3.642188556492   -1.121208011789    0.000000000000
 H    4.585288556492   -0.748148011789    0.000000000000
 C    3.512628556492   -2.574098011789    0.000000000000
 H    2.971388556492   -2.919818011789    0.888360000000
 H    2.971388556492   -2.919818011789   -0.888360000000
 H    4.526428556492   -2.989078011789    0.000000000000
RB   -0.587511443508    0.223861988211    2.111220000000
RB   -0.587511443508    0.223861988211   -2.111220000000
 O   -0.064683233901    0.024645788968    0.000000000000
 C   -1.291539118437   -0.302405779714    0.000000000000
 C   -1.823434648385   -1.715058187818    0.000000000000
 H   -1.039547409774   -2.474966534096    0.000000000000
 H   -2.473486263517   -1.835126171227   -0.883451226229
 H   -2.473486263517   -1.835126171227    0.883451226229
 N   -2.276421787682    0.600798001684    0.000000000000
 H   -3.219518273745    0.227742164072    0.000000000000
 C   -2.146864548691    2.053693014210    0.000000000000
 H   -1.605619532435    2.399412734535   -0.888361495878
 H   -1.605619532435    2.399412734535    0.888361495878
 H   -3.160657834465    2.468677311888    0.000000000000
