26

 C    3.297247272353    1.153486001772    0.000000000000
 H    2.513367272353    1.913396001772    0.000000000000
 H    3.947297272353    1.273556001772    0.883450000000
 H    3.947297272353    1.273556001772   -0.883450000000
 C    2.765347272353   -0.259163998228    0.000000000000
 O    1.538497272353   -0.586213998228    0.000000000000
 N    3.750227272353   -1.162373998228    0.000000000000
 H    4.693327272353   -0.789313998228    0.000000000000
 C    3.620667272353   -2.615263998228    0.000000000000
 H    3.079427272353   -2.960983998228    0.888360000000
 H    3.079427272353   -2.960983998228   -0.888360000000
 H    4.634467272353   -3.030243998228    0.000000000000
RB   -0.479472727647    0.182696001772    2.111220000000
RB   -0.479472727647    0.182696001772   -2.111220000000
 O   -0.423876327537    0.161509115266    0.000000000000
 C   -1.650732212074   -0.165542453416    0.000000000000
 C   -2.182627742022   -1.578194861520    0.000000000000
 H   -1.398740503411   -2.338103207798    0.000000000000
 H   -2.832679357154   -1.698262844930   -0.883451226229
 H   -2.832679357154   -1.698262844930    0.883451226229
 N   -2.635614881319    0.737661327981    0.000000000000
 H   -3.578711367381    0.364605490369    0.000000000000
 C   -2.506057642328    2.190556340508    0.000000000000
 H   -1.964812626072    2.536276060832   -0.888361495878
 H   -1.964812626072    2.536276060832    0.888361495878
 H   -3.519850928102    2.605540638185    0.000000000000
