26

 C    3.340462758697    1.137019607196    0.000000000000
 H    2.556582758697    1.896929607196    0.000000000000
 H    3.990512758697    1.257089607196    0.883450000000
 H    3.990512758697    1.257089607196   -0.883450000000
 C    2.808562758697   -0.275630392804    0.000000000000
 O    1.581712758697   -0.602680392804    0.000000000000
 N    3.793442758697   -1.178840392804    0.000000000000
 H    4.736542758697   -0.805780392804    0.000000000000
 C    3.663882758697   -2.631730392804    0.000000000000
 H    3.122642758697   -2.977450392804    0.888360000000
 H    3.122642758697   -2.977450392804   -0.888360000000
 H    4.677682758697   -3.046710392804    0.000000000000
RB   -0.436257241303    0.166229607196    2.111220000000
RB   -0.436257241303    0.166229607196   -2.111220000000
 O   -0.567553564992    0.216254445785    0.000000000000
 C   -1.794409449529   -0.110797122897    0.000000000000
 C   -2.326304979477   -1.523449531001    0.000000000000
 H   -1.542417740866   -2.283357877279    0.000000000000
 H   -2.976356594609   -1.643517514411   -0.883451226229
 H   -2.976356594609   -1.643517514411    0.883451226229
 N   -2.779292118774    0.792406658500    0.000000000000
 H   -3.722388604836    0.419350820888    0.000000000000
 C   -2.649734879782    2.245301671027    0.000000000000
 H   -2.108489863527    2.591021391351   -0.888361495878
 H   -2.108489863527    2.591021391351    0.888361495878
 H   -3.663528165557    2.660285968704    0.000000000000
