26

 C    3.383678245042    1.120553212621    0.000000000000
 H    2.599798245042    1.880463212621    0.000000000000
 H    4.033728245042    1.240623212621    0.883450000000
 H    4.033728245042    1.240623212621   -0.883450000000
 C    2.851778245042   -0.292096787379    0.000000000000
 O    1.624928245042   -0.619146787379    0.000000000000
 N    3.836658245042   -1.195306787379    0.000000000000
 H    4.779758245042   -0.822246787379    0.000000000000
 C    3.707098245042   -2.648196787379    0.000000000000
 H    3.165858245042   -2.993916787379    0.888360000000
 H    3.165858245042   -2.993916787379   -0.888360000000
 H    4.720898245042   -3.063176787379    0.000000000000
RB   -0.393041754958    0.149763212621    2.111220000000
RB   -0.393041754958    0.149763212621   -2.111220000000
 O   -0.711230802447    0.270999776304    0.000000000000
 C   -1.938086686984   -0.056051792378    0.000000000000
 C   -2.469982216932   -1.468704200482    0.000000000000
 H   -1.686094978321   -2.228612546760    0.000000000000
 H   -3.120033832063   -1.588772183892   -0.883451226229
 H   -3.120033832063   -1.588772183892    0.883451226229
 N   -2.922969356228    0.847151989019    0.000000000000
 H   -3.866065842291    0.474096151408    0.000000000000
 C   -2.793412117237    2.300047001546    0.000000000000
 H   -2.252167100982    2.645766721870   -0.888361495878
 H   -2.252167100982    2.645766721870    0.888361495878
 H   -3.807205403012    2.715031299223    0.000000000000
