26

 C    3.426893731386    1.104086818045    0.000000000000
 H    2.643013731386    1.863996818045    0.000000000000
 H    4.076943731386    1.224156818045    0.883450000000
 H    4.076943731386    1.224156818045   -0.883450000000
 C    2.894993731386   -0.308563181955    0.000000000000
 O    1.668143731386   -0.635613181955    0.000000000000
 N    3.879873731386   -1.211773181955    0.000000000000
 H    4.822973731386   -0.838713181955    0.000000000000
 C    3.750313731386   -2.664663181955    0.000000000000
 H    3.209073731386   -3.010383181955    0.888360000000
 H    3.209073731386   -3.010383181955   -0.888360000000
 H    4.764113731386   -3.079643181955    0.000000000000
RB   -0.349826268614    0.133296818045    2.111220000000
RB   -0.349826268614    0.133296818045   -2.111220000000
 O   -0.854908039902    0.325745106823    0.000000000000
 C   -2.081763924438   -0.001306461859    0.000000000000
 C   -2.613659454387   -1.413958869963    0.000000000000
 H   -1.829772215776   -2.173867216241    0.000000000000
 H   -3.263711069518   -1.534026853373   -0.883451226229
 H   -3.263711069518   -1.534026853373    0.883451226229
 N   -3.066646593683    0.901897319539    0.000000000000
 H   -4.009743079746    0.528841481927    0.000000000000
 C   -2.937089354692    2.354792332065    0.000000000000
 H   -2.395844338436    2.700512052389   -0.888361495878
 H   -2.395844338436    2.700512052389    0.888361495878
 H   -3.950882640466    2.769776629742    0.000000000000
