26

 C    3.491716960903    1.079387226182    0.000000000000
 H    2.707836960903    1.839297226182    0.000000000000
 H    4.141766960903    1.199457226182    0.883450000000
 H    4.141766960903    1.199457226182   -0.883450000000
 C    2.959816960903   -0.333262773818    0.000000000000
 O    1.732966960903   -0.660312773818    0.000000000000
 N    3.944696960903   -1.236472773818    0.000000000000
 H    4.887796960903   -0.863412773818    0.000000000000
 C    3.815136960903   -2.689362773818    0.000000000000
 H    3.273896960903   -3.035082773818    0.888360000000
 H    3.273896960903   -3.035082773818   -0.888360000000
 H    4.828936960903   -3.104342773818    0.000000000000
RB   -0.285003039097    0.108597226182    2.111220000000
RB   -0.285003039097    0.108597226182   -2.111220000000
 O   -1.070423896084    0.407863102602    0.000000000000
 C   -2.297279780621    0.080811533919    0.000000000000
 C   -2.829175310569   -1.331840874184    0.000000000000
 H   -2.045288071958   -2.091749220462    0.000000000000
 H   -3.479226925700   -1.451908857594   -0.883451226229
 H   -3.479226925700   -1.451908857594    0.883451226229
 N   -3.282162449865    0.984015315317    0.000000000000
 H   -4.225258935928    0.610959477705    0.000000000000
 C   -3.152605210874    2.436910327844    0.000000000000
 H   -2.611360194619    2.782630048168   -0.888361495878
 H   -2.611360194619    2.782630048168    0.888361495878
 H   -4.166398496648    2.851894625521    0.000000000000
