26

 C    3.513324704075    1.071154028894    0.000000000000
 H    2.729444704075    1.831064028894    0.000000000000
 H    4.163374704075    1.191224028894    0.883450000000
 H    4.163374704075    1.191224028894   -0.883450000000
 C    2.981424704075   -0.341495971106    0.000000000000
 O    1.754574704075   -0.668545971106    0.000000000000
 N    3.966304704075   -1.244705971106    0.000000000000
 H    4.909404704075   -0.871645971106    0.000000000000
 C    3.836744704075   -2.697595971106    0.000000000000
 H    3.295504704075   -3.043315971106    0.888360000000
 H    3.295504704075   -3.043315971106   -0.888360000000
 H    4.850544704075   -3.112575971106    0.000000000000
RB   -0.263395295925    0.100364028894    2.111220000000
RB   -0.263395295925    0.100364028894   -2.111220000000
 O   -1.142262514811    0.435235767861    0.000000000000
 C   -2.369118399348    0.108184199179    0.000000000000
 C   -2.901013929296   -1.304468208925    0.000000000000
 H   -2.117126690685   -2.064376555203    0.000000000000
 H   -3.551065544428   -1.424536192335   -0.883451226229
 H   -3.551065544428   -1.424536192335    0.883451226229
 N   -3.354001068593    1.011387980577    0.000000000000
 H   -4.297097554655    0.638332142965    0.000000000000
 C   -3.224443829601    2.464282993103    0.000000000000
 H   -2.683198813346    2.810002713428   -0.888361495878
 H   -2.683198813346    2.810002713428    0.888361495878
 H   -4.238237115376    2.879267290780    0.000000000000
