26

 C    3.556540190419    1.054687634318    0.000000000000
 H    2.772660190419    1.814597634318    0.000000000000
 H    4.206590190419    1.174757634318    0.883450000000
 H    4.206590190419    1.174757634318   -0.883450000000
 C    3.024640190419   -0.357962365682    0.000000000000
 O    1.797790190419   -0.685012365682    0.000000000000
 N    4.009520190419   -1.261172365682    0.000000000000
 H    4.952620190419   -0.888112365682    0.000000000000
 C    3.879960190419   -2.714062365682    0.000000000000
 H    3.338720190419   -3.059782365682    0.888360000000
 H    3.338720190419   -3.059782365682   -0.888360000000
 H    4.893760190419   -3.129042365682    0.000000000000
RB   -0.220179809581    0.083897634318    2.111220000000
RB   -0.220179809581    0.083897634318   -2.111220000000
 O   -1.285939752266    0.489981098380    0.000000000000
 C   -2.512795636803    0.162929529698    0.000000000000
 C   -3.044691166751   -1.249722878406    0.000000000000
 H   -2.260803928140   -2.009631224684    0.000000000000
 H   -3.694742781882   -1.369790861816   -0.883451226229
 H   -3.694742781882   -1.369790861816    0.883451226229
 N   -3.497678306047    1.066133311096    0.000000000000
 H   -4.440774792110    0.693077473484    0.000000000000
 C   -3.368121067056    2.519028323622    0.000000000000
 H   -2.826876050801    2.864748043947   -0.888361495878
 H   -2.826876050801    2.864748043947    0.888361495878
 H   -4.381914352831    2.934012621299    0.000000000000
