26

 C    3.707794392624    0.997055253304    0.000000000000
 H    2.923914392624    1.756965253304    0.000000000000
 H    4.357844392624    1.117125253304    0.883450000000
 H    4.357844392624    1.117125253304   -0.883450000000
 C    3.175894392624   -0.415594746696    0.000000000000
 O    1.949044392624   -0.742644746696    0.000000000000
 N    4.160774392624   -1.318804746696    0.000000000000
 H    5.103874392624   -0.945744746696    0.000000000000
 C    4.031214392624   -2.771694746696    0.000000000000
 H    3.489974392624   -3.117414746696    0.888360000000
 H    3.489974392624   -3.117414746696   -0.888360000000
 H    5.045014392624   -3.186674746696    0.000000000000
RB   -0.068925607376    0.026265253304    2.111220000000
RB   -0.068925607376    0.026265253304   -2.111220000000
 O   -1.788810083357    0.681589755197    0.000000000000
 C   -3.015665967894    0.354538186515    0.000000000000
 C   -3.547561497842   -1.058114221589    0.000000000000
 H   -2.763674259231   -1.818022567867    0.000000000000
 H   -4.197613112974   -1.178182204999   -0.883451226229
 H   -4.197613112974   -1.178182204999    0.883451226229
 N   -4.000548637139    1.257741967912    0.000000000000
 H   -4.943645123201    0.884686130300    0.000000000000
 C   -3.870991398148    2.710636980439    0.000000000000
 H   -3.329746381892    3.056356700763   -0.888361495878
 H   -3.329746381892    3.056356700763    0.888361495878
 H   -4.884784683922    3.125621278116    0.000000000000
