26

 C    3.751009878969    0.980588858728    0.000000000000
 H    2.967129878969    1.740498858728    0.000000000000
 H    4.401059878969    1.100658858728    0.883450000000
 H    4.401059878969    1.100658858728   -0.883450000000
 C    3.219109878969   -0.432061141272    0.000000000000
 O    1.992259878969   -0.759111141272    0.000000000000
 N    4.203989878969   -1.335271141272    0.000000000000
 H    5.147089878969   -0.962211141272    0.000000000000
 C    4.074429878969   -2.788161141272    0.000000000000
 H    3.533189878969   -3.133881141272    0.888360000000
 H    3.533189878969   -3.133881141272   -0.888360000000
 H    5.088229878969   -3.203141141272    0.000000000000
RB   -0.025710121031    0.009798858728    2.111220000000
RB   -0.025710121031    0.009798858728   -2.111220000000
 O   -1.932487320812    0.736335085716    0.000000000000
 C   -3.159343205349    0.409283517034    0.000000000000
 C   -3.691238735297   -1.003368891070    0.000000000000
 H   -2.907351496686   -1.763277237348    0.000000000000
 H   -4.341290350429   -1.123436874480   -0.883451226229
 H   -4.341290350429   -1.123436874480    0.883451226229
 N   -4.144225874594    1.312487298431    0.000000000000
 H   -5.087322360656    0.939431460819    0.000000000000
 C   -4.014668635602    2.765382310958    0.000000000000
 H   -3.473423619347    3.111102031282   -0.888361495878
 H   -3.473423619347    3.111102031282    0.888361495878
 H   -5.028461921377    3.180366608635    0.000000000000
