26

 C    3.794225365313    0.964122464153    0.000000000000
 H    3.010345365313    1.724032464153    0.000000000000
 H    4.444275365313    1.084192464153    0.883450000000
 H    4.444275365313    1.084192464153   -0.883450000000
 C    3.262325365313   -0.448527535847    0.000000000000
 O    2.035475365313   -0.775577535847    0.000000000000
 N    4.247205365313   -1.351737535847    0.000000000000
 H    5.190305365313   -0.978677535847    0.000000000000
 C    4.117645365313   -2.804627535847    0.000000000000
 H    3.576405365313   -3.150347535847    0.888360000000
 H    3.576405365313   -3.150347535847   -0.888360000000
 H    5.131445365313   -3.219607535847    0.000000000000
RB    0.017505365313   -0.006667535847    2.111220000000
RB    0.017505365313   -0.006667535847   -2.111220000000
 O   -2.076164558267    0.791080416235    0.000000000000
 C   -3.303020442804    0.464028847553    0.000000000000
 C   -3.834915972752   -0.948623560551    0.000000000000
 H   -3.051028734141   -1.708531906829    0.000000000000
 H   -4.484967587883   -1.068691543961   -0.883451226229
 H   -4.484967587883   -1.068691543961    0.883451226229
 N   -4.287903112048    1.367232628950    0.000000000000
 H   -5.230999598111    0.994176791338    0.000000000000
 C   -4.158345873057    2.820127641477    0.000000000000
 H   -3.617100856802    3.165847361801   -0.888361495878
 H   -3.617100856802    3.165847361801    0.888361495878
 H   -5.172139158832    3.235111939154    0.000000000000
