26

 C    3.837440851657    0.947656069577    0.000000000000
 H    3.053560851657    1.707566069577    0.000000000000
 H    4.487490851657    1.067726069577    0.883450000000
 H    4.487490851657    1.067726069577   -0.883450000000
 C    3.305540851657   -0.464993930423    0.000000000000
 O    2.078690851657   -0.792043930423    0.000000000000
 N    4.290420851657   -1.368203930423    0.000000000000
 H    5.233520851657   -0.995143930423    0.000000000000
 C    4.160860851657   -2.821093930423    0.000000000000
 H    3.619620851657   -3.166813930423    0.888360000000
 H    3.619620851657   -3.166813930423   -0.888360000000
 H    5.174660851657   -3.236073930423    0.000000000000
RB    0.060720851657   -0.023133930423    2.111220000000
RB    0.060720851657   -0.023133930423   -2.111220000000
 O   -2.219841795722    0.845825746754    0.000000000000
 C   -3.446697680258    0.518774178072    0.000000000000
 C   -3.978593210207   -0.893878230032    0.000000000000
 H   -3.194705971596   -1.653786576310    0.000000000000
 H   -4.628644825338   -1.013946213442   -0.883451226229
 H   -4.628644825338   -1.013946213442    0.883451226229
 N   -4.431580349503    1.421977959469    0.000000000000
 H   -5.374676835566    1.048922121858    0.000000000000
 C   -4.302023110512    2.874872971996    0.000000000000
 H   -3.760778094256    3.220592692320   -0.888361495878
 H   -3.760778094256    3.220592692320    0.888361495878
 H   -5.315816396286    3.289857269673    0.000000000000
