26

 C    3.859048594830    0.939422872289    0.000000000000
 H    3.075168594830    1.699332872289    0.000000000000
 H    4.509098594830    1.059492872289    0.883450000000
 H    4.509098594830    1.059492872289   -0.883450000000
 C    3.327148594830   -0.473227127711    0.000000000000
 O    2.100298594830   -0.800277127711    0.000000000000
 N    4.312028594830   -1.376437127711    0.000000000000
 H    5.255128594830   -1.003377127711    0.000000000000
 C    4.182468594830   -2.829327127711    0.000000000000
 H    3.641228594830   -3.175047127711    0.888360000000
 H    3.641228594830   -3.175047127711   -0.888360000000
 H    5.196268594830   -3.244307127711    0.000000000000
RB    0.082328594830   -0.031367127711    2.111220000000
RB    0.082328594830   -0.031367127711   -2.111220000000
 O   -2.291680414449    0.873198412014    0.000000000000
 C   -3.518536298986    0.546146843331    0.000000000000
 C   -4.050431828934   -0.866505564772    0.000000000000
 H   -3.266544590323   -1.626413911050    0.000000000000
 H   -4.700483444066   -0.986573548182   -0.883451226229
 H   -4.700483444066   -0.986573548182    0.883451226229
 N   -4.503418968230    1.449350624729    0.000000000000
 H   -5.446515454293    1.076294787117    0.000000000000
 C   -4.373861729239    2.902245637256    0.000000000000
 H   -3.832616712984    3.247965357580   -0.888361495878
 H   -3.832616712984    3.247965357580    0.888361495878
 H   -5.387655015014    3.317229934933    0.000000000000
