26

 C    3.902264081174    0.922956477714    0.000000000000
 H    3.118384081174    1.682866477714    0.000000000000
 H    4.552314081174    1.043026477714    0.883450000000
 H    4.552314081174    1.043026477714   -0.883450000000
 C    3.370364081174   -0.489693522286    0.000000000000
 O    2.143514081174   -0.816743522286    0.000000000000
 N    4.355244081174   -1.392903522286    0.000000000000
 H    5.298344081174   -1.019843522286    0.000000000000
 C    4.225684081174   -2.845793522286    0.000000000000
 H    3.684444081174   -3.191513522286    0.888360000000
 H    3.684444081174   -3.191513522286   -0.888360000000
 H    5.239484081174   -3.260773522286    0.000000000000
RB    0.125544081174   -0.047833522286    2.111220000000
RB    0.125544081174   -0.047833522286   -2.111220000000
 O   -2.435357651904    0.927943742533    0.000000000000
 C   -3.662213536441    0.600892173850    0.000000000000
 C   -4.194109066389   -0.811760234253    0.000000000000
 H   -3.410221827778   -1.571668580531    0.000000000000
 H   -4.844160681520   -0.931828217663   -0.883451226229
 H   -4.844160681520   -0.931828217663    0.883451226229
 N   -4.647096205685    1.504095955248    0.000000000000
 H   -5.590192691748    1.131040117636    0.000000000000
 C   -4.517538966694    2.956990967775    0.000000000000
 H   -3.976293950439    3.302710688099   -0.888361495878
 H   -3.976293950439    3.302710688099    0.888361495878
 H   -5.531332252468    3.371975265452    0.000000000000
