26

 C    3.945479567518    0.906490083138    0.000000000000
 H    3.161599567518    1.666400083138    0.000000000000
 H    4.595529567518    1.026560083138    0.883450000000
 H    4.595529567518    1.026560083138   -0.883450000000
 C    3.413579567518   -0.506159916862    0.000000000000
 O    2.186729567518   -0.833209916862    0.000000000000
 N    4.398459567518   -1.409369916862    0.000000000000
 H    5.341559567518   -1.036309916862    0.000000000000
 C    4.268899567518   -2.862259916862    0.000000000000
 H    3.727659567518   -3.207979916862    0.888360000000
 H    3.727659567518   -3.207979916862   -0.888360000000
 H    5.282699567518   -3.277239916862    0.000000000000
RB    0.168759567518   -0.064299916862    2.111220000000
RB    0.168759567518   -0.064299916862   -2.111220000000
 O   -2.579034889359    0.982689073052    0.000000000000
 C   -3.805890773895    0.655637504369    0.000000000000
 C   -4.337786303843   -0.757014903734    0.000000000000
 H   -3.553899065232   -1.516923250012    0.000000000000
 H   -4.987837918975   -0.877082887144   -0.883451226229
 H   -4.987837918975   -0.877082887144    0.883451226229
 N   -4.790773443140    1.558841285767    0.000000000000
 H   -5.733869929203    1.185785448155    0.000000000000
 C   -4.661216204149    3.011736298294    0.000000000000
 H   -4.119971187893    3.357456018618   -0.888361495878
 H   -4.119971187893    3.357456018618    0.888361495878
 H   -5.675009489923    3.426720595971    0.000000000000
