26

 C    3.967087310690    0.898256885850    0.000000000000
 H    3.183207310690    1.658166885850    0.000000000000
 H    4.617137310690    1.018326885850    0.883450000000
 H    4.617137310690    1.018326885850   -0.883450000000
 C    3.435187310690   -0.514393114150    0.000000000000
 O    2.208337310690   -0.841443114150    0.000000000000
 N    4.420067310690   -1.417603114150    0.000000000000
 H    5.363167310690   -1.044543114150    0.000000000000
 C    4.290507310690   -2.870493114150    0.000000000000
 H    3.749267310690   -3.216213114150    0.888360000000
 H    3.749267310690   -3.216213114150   -0.888360000000
 H    5.304307310690   -3.285473114150    0.000000000000
RB    0.190367310690   -0.072533114150    2.111220000000
RB    0.190367310690   -0.072533114150   -2.111220000000
 O   -2.650873508086    1.010061738311    0.000000000000
 C   -3.877729392623    0.683010169629    0.000000000000
 C   -4.409624922571   -0.729642238475    0.000000000000
 H   -3.625737683960   -1.489550584753    0.000000000000
 H   -5.059676537702   -0.849710221885   -0.883451226229
 H   -5.059676537702   -0.849710221885    0.883451226229
 N   -4.862612061867    1.586213951027    0.000000000000
 H   -5.805708547930    1.213158113415    0.000000000000
 C   -4.733054822876    3.039108963553    0.000000000000
 H   -4.191809806621    3.384828683878   -0.888361495878
 H   -4.191809806621    3.384828683878    0.888361495878
 H   -5.746848108651    3.454093261230    0.000000000000
