26

 C    4.031910540207    0.873557293987    0.000000000000
 H    3.248030540207    1.633467293987    0.000000000000
 H    4.681960540207    0.993627293987    0.883450000000
 H    4.681960540207    0.993627293987   -0.883450000000
 C    3.500010540207   -0.539092706013    0.000000000000
 O    2.273160540207   -0.866142706013    0.000000000000
 N    4.484890540207   -1.442302706013    0.000000000000
 H    5.427990540207   -1.069242706013    0.000000000000
 C    4.355330540207   -2.895192706013    0.000000000000
 H    3.814090540207   -3.240912706013    0.888360000000
 H    3.814090540207   -3.240912706013   -0.888360000000
 H    5.369130540207   -3.310172706013    0.000000000000
RB    0.255190540207   -0.097232706013    2.111220000000
RB    0.255190540207   -0.097232706013   -2.111220000000
 O   -2.866389364268    1.092179734090    0.000000000000
 C   -4.093245248805    0.765128165407    0.000000000000
 C   -4.625140778753   -0.647524242696    0.000000000000
 H   -3.841253540142   -1.407432588974    0.000000000000
 H   -5.275192393885   -0.767592226106   -0.883451226229
 H   -5.275192393885   -0.767592226106    0.883451226229
 N   -5.078127918049    1.668331946805    0.000000000000
 H   -6.021224404112    1.295276109193    0.000000000000
 C   -4.948570679058    3.121226959332    0.000000000000
 H   -4.407325662803    3.466946679656   -0.888361495878
 H   -4.407325662803    3.466946679656    0.888361495878
 H   -5.962363964833    3.536211257009    0.000000000000
