26

 C    4.075126026551    0.857090899411    0.000000000000
 H    3.291246026551    1.617000899411    0.000000000000
 H    4.725176026551    0.977160899411    0.883450000000
 H    4.725176026551    0.977160899411   -0.883450000000
 C    3.543226026551   -0.555559100589    0.000000000000
 O    2.316376026551   -0.882609100589    0.000000000000
 N    4.528106026551   -1.458769100589    0.000000000000
 H    5.471206026551   -1.085709100589    0.000000000000
 C    4.398546026551   -2.911659100589    0.000000000000
 H    3.857306026551   -3.257379100589    0.888360000000
 H    3.857306026551   -3.257379100589   -0.888360000000
 H    5.412346026551   -3.326639100589    0.000000000000
RB    0.298406026551   -0.113699100589    2.111220000000
RB    0.298406026551   -0.113699100589   -2.111220000000
 O   -3.010066601723    1.146925064609    0.000000000000
 C   -4.236922486260    0.819873495927    0.000000000000
 C   -4.768818016208   -0.592778912177    0.000000000000
 H   -3.984930777597   -1.352687258455    0.000000000000
 H   -5.418869631339   -0.712846895587   -0.883451226229
 H   -5.418869631339   -0.712846895587    0.883451226229
 N   -5.221805155504    1.723077277324    0.000000000000
 H   -6.164901641567    1.350021439712    0.000000000000
 C   -5.092247916513    3.175972289851    0.000000000000
 H   -4.551002900258    3.521692010175   -0.888361495878
 H   -4.551002900258    3.521692010175    0.888361495878
 H   -6.106041202287    3.590956587528    0.000000000000
