26

 C    4.139949256068    0.832391307548    0.000000000000
 H    3.356069256068    1.592301307548    0.000000000000
 H    4.789999256068    0.952461307548    0.883450000000
 H    4.789999256068    0.952461307548   -0.883450000000
 C    3.608049256068   -0.580258692452    0.000000000000
 O    2.381199256068   -0.907308692452    0.000000000000
 N    4.592929256068   -1.483468692452    0.000000000000
 H    5.536029256068   -1.110408692452    0.000000000000
 C    4.463369256068   -2.936358692452    0.000000000000
 H    3.922129256068   -3.282078692452    0.888360000000
 H    3.922129256068   -3.282078692452   -0.888360000000
 H    5.477169256068   -3.351338692452    0.000000000000
RB    0.363229256068   -0.138398692452    2.111220000000
RB    0.363229256068   -0.138398692452   -2.111220000000
 O   -3.225582457905    1.229043060387    0.000000000000
 C   -4.452438342442    0.901991491705    0.000000000000
 C   -4.984333872390   -0.510660916399    0.000000000000
 H   -4.200446633779   -1.270569262676    0.000000000000
 H   -5.634385487521   -0.630728899808   -0.883451226229
 H   -5.634385487521   -0.630728899808    0.883451226229
 N   -5.437321011686    1.805195273103    0.000000000000
 H   -6.380417497749    1.432139435491    0.000000000000
 C   -5.307763772695    3.258090285630    0.000000000000
 H   -4.766518756440    3.603810005954   -0.888361495878
 H   -4.766518756440    3.603810005954    0.888361495878
 H   -6.321557058469    3.673074583307    0.000000000000
