26

 C    4.291203458273    0.774758926533    0.000000000000
 H    3.507323458273    1.534668926533    0.000000000000
 H    4.941253458273    0.894828926533    0.883450000000
 H    4.941253458273    0.894828926533   -0.883450000000
 C    3.759303458273   -0.637891073467    0.000000000000
 O    2.532453458273   -0.964941073467    0.000000000000
 N    4.744183458273   -1.541101073467    0.000000000000
 H    5.687283458273   -1.168041073467    0.000000000000
 C    4.614623458273   -2.993991073467    0.000000000000
 H    4.073383458273   -3.339711073467    0.888360000000
 H    4.073383458273   -3.339711073467   -0.888360000000
 H    5.628423458273   -3.408971073467    0.000000000000
RB    0.514483458273   -0.196031073467    2.111220000000
RB    0.514483458273   -0.196031073467   -2.111220000000
 O   -3.728452788996    1.420651717204    0.000000000000
 C   -4.955308673533    1.093600148522    0.000000000000
 C   -5.487204203481   -0.319052259582    0.000000000000
 H   -4.703316964870   -1.078960605860    0.000000000000
 H   -6.137255818613   -0.439120242992   -0.883451226229
 H   -6.137255818613   -0.439120242992    0.883451226229
 N   -5.940191342778    1.996803929919    0.000000000000
 H   -6.883287828840    1.623748092308    0.000000000000
 C   -5.810634103787    3.449698942446    0.000000000000
 H   -5.269389087531    3.795418662770   -0.888361495878
 H   -5.269389087531    3.795418662770    0.888361495878
 H   -6.824427389561    3.864683240123    0.000000000000
