26

 C    4.334418944617    0.758292531957    0.000000000000
 H    3.550538944617    1.518202531957    0.000000000000
 H    4.984468944617    0.878362531957    0.883450000000
 H    4.984468944617    0.878362531957   -0.883450000000
 C    3.802518944617   -0.654357468043    0.000000000000
 O    2.575668944617   -0.981407468043    0.000000000000
 N    4.787398944617   -1.557567468043    0.000000000000
 H    5.730498944617   -1.184507468043    0.000000000000
 C    4.657838944617   -3.010457468043    0.000000000000
 H    4.116598944617   -3.356177468043    0.888360000000
 H    4.116598944617   -3.356177468043   -0.888360000000
 H    5.671638944617   -3.425437468043    0.000000000000
RB    0.557698944617   -0.212497468043    2.111220000000
RB    0.557698944617   -0.212497468043   -2.111220000000
 O   -3.872130026451    1.475397047723    0.000000000000
 C   -5.098985910988    1.148345479041    0.000000000000
 C   -5.630881440936   -0.264306929063    0.000000000000
 H   -4.846994202325   -1.024215275341    0.000000000000
 H   -6.280933056068   -0.384374912473   -0.883451226229
 H   -6.280933056068   -0.384374912473    0.883451226229
 N   -6.083868580233    2.051549260439    0.000000000000
 H   -7.026965066295    1.678493422827    0.000000000000
 C   -5.954311341241    3.504444272965    0.000000000000
 H   -5.413066324986    3.850163993289   -0.888361495878
 H   -5.413066324986    3.850163993289    0.888361495878
 H   -6.968104627016    3.919428570642    0.000000000000
