26

 C    4.377634430962    0.741826137382    0.000000000000
 H    3.593754430962    1.501736137382    0.000000000000
 H    5.027684430962    0.861896137382    0.883450000000
 H    5.027684430962    0.861896137382   -0.883450000000
 C    3.845734430962   -0.670823862618    0.000000000000
 O    2.618884430962   -0.997873862618    0.000000000000
 N    4.830614430962   -1.574033862618    0.000000000000
 H    5.773714430962   -1.200973862618    0.000000000000
 C    4.701054430962   -3.026923862618    0.000000000000
 H    4.159814430962   -3.372643862618    0.888360000000
 H    4.159814430962   -3.372643862618   -0.888360000000
 H    5.714854430962   -3.441903862618    0.000000000000
RB    0.600914430962   -0.228963862618    2.111220000000
RB    0.600914430962   -0.228963862618   -2.111220000000
 O   -4.015807263906    1.530142378242    0.000000000000
 C   -5.242663148443    1.203090809560    0.000000000000
 C   -5.774558678391   -0.209561598544    0.000000000000
 H   -4.990671439780   -0.969469944822    0.000000000000
 H   -6.424610293522   -0.329629581954   -0.883451226229
 H   -6.424610293522   -0.329629581954    0.883451226229
 N   -6.227545817687    2.106294590958    0.000000000000
 H   -7.170642303750    1.733238753346    0.000000000000
 C   -6.097988578696    3.559189603484    0.000000000000
 H   -5.556743562441    3.904909323808   -0.888361495878
 H   -5.556743562441    3.904909323808    0.888361495878
 H   -7.111781864471    3.974173901161    0.000000000000
