26

 C    4.464065403651    0.708893348231    0.000000000000
 H    3.680185403651    1.468803348231    0.000000000000
 H    5.114115403651    0.828963348231    0.883450000000
 H    5.114115403651    0.828963348231   -0.883450000000
 C    3.932165403651   -0.703756651769    0.000000000000
 O    2.705315403651   -1.030806651769    0.000000000000
 N    4.917045403651   -1.606966651769    0.000000000000
 H    5.860145403651   -1.233906651769    0.000000000000
 C    4.787485403651   -3.059856651769    0.000000000000
 H    4.246245403651   -3.405576651769    0.888360000000
 H    4.246245403651   -3.405576651769   -0.888360000000
 H    5.801285403651   -3.474836651769    0.000000000000
RB    0.687345403651   -0.261896651769    2.111220000000
RB    0.687345403651   -0.261896651769   -2.111220000000
 O   -4.303161738815    1.639633039280    0.000000000000
 C   -5.530017623352    1.312581470598    0.000000000000
 C   -6.061913153300   -0.100070937506    0.000000000000
 H   -5.278025914689   -0.859979283784    0.000000000000
 H   -6.711964768432   -0.220138920916   -0.883451226229
 H   -6.711964768432   -0.220138920916    0.883451226229
 N   -6.514900292597    2.215785251996    0.000000000000
 H   -7.457996778659    1.842729414384    0.000000000000
 C   -6.385343053606    3.668680264522    0.000000000000
 H   -5.844098037350    4.014399984847   -0.888361495878
 H   -5.844098037350    4.014399984847    0.888361495878
 H   -7.399136339380    4.083664562199    0.000000000000
