26

 C    4.507280889995    0.692426953655    0.000000000000
 H    3.723400889995    1.452336953655    0.000000000000
 H    5.157330889995    0.812496953655    0.883450000000
 H    5.157330889995    0.812496953655   -0.883450000000
 C    3.975380889995   -0.720223046345    0.000000000000
 O    2.748530889995   -1.047273046345    0.000000000000
 N    4.960260889995   -1.623433046345    0.000000000000
 H    5.903360889995   -1.250373046345    0.000000000000
 C    4.830700889995   -3.076323046345    0.000000000000
 H    4.289460889995   -3.422043046345    0.888360000000
 H    4.289460889995   -3.422043046345   -0.888360000000
 H    5.844500889995   -3.491303046345    0.000000000000
RB    0.730560889995   -0.278363046345    2.111220000000
RB    0.730560889995   -0.278363046345   -2.111220000000
 O   -4.446838976270    1.694378369799    0.000000000000
 C   -5.673694860807    1.367326801117    0.000000000000
 C   -6.205590390755   -0.045325606987    0.000000000000
 H   -5.421703152144   -0.805233953265    0.000000000000
 H   -6.855642005887   -0.165393590397   -0.883451226229
 H   -6.855642005887   -0.165393590397    0.883451226229
 N   -6.658577530052    2.270530582515    0.000000000000
 H   -7.601674016114    1.897474744903    0.000000000000
 C   -6.529020291060    3.723425595041    0.000000000000
 H   -5.987775274805    4.069145315366   -0.888361495878
 H   -5.987775274805    4.069145315366    0.888361495878
 H   -7.542813576835    4.138409892719    0.000000000000
