26

 C    4.572104119511    0.667727361792    0.000000000000
 H    3.788224119511    1.427637361792    0.000000000000
 H    5.222154119511    0.787797361792    0.883450000000
 H    5.222154119511    0.787797361792   -0.883450000000
 C    4.040204119511   -0.744922638208    0.000000000000
 O    2.813354119511   -1.071972638208    0.000000000000
 N    5.025084119511   -1.648132638208    0.000000000000
 H    5.968184119511   -1.275072638208    0.000000000000
 C    4.895524119511   -3.101022638208    0.000000000000
 H    4.354284119511   -3.446742638208    0.888360000000
 H    4.354284119511   -3.446742638208   -0.888360000000
 H    5.909324119511   -3.516002638208    0.000000000000
RB    0.795384119511   -0.303062638208    2.111220000000
RB    0.795384119511   -0.303062638208   -2.111220000000
 O   -4.662354832452    1.776496365578    0.000000000000
 C   -5.889210716989    1.449444796896    0.000000000000
 C   -6.421106246937    0.036792388792    0.000000000000
 H   -5.637219008326   -0.723115957486    0.000000000000
 H   -7.071157862069   -0.083275594618   -0.883451226229
 H   -7.071157862069   -0.083275594618    0.883451226229
 N   -6.874093386234    2.352648578293    0.000000000000
 H   -7.817189872296    1.979592740681    0.000000000000
 C   -6.744536147242    3.805543590820    0.000000000000
 H   -6.203291130987    4.151263311144   -0.888361495878
 H   -6.203291130987    4.151263311144    0.888361495878
 H   -7.758329433017    4.220527888497    0.000000000000
