26

 C    4.615319605856    0.651260967216    0.000000000000
 H    3.831439605856    1.411170967216    0.000000000000
 H    5.265369605856    0.771330967216    0.883450000000
 H    5.265369605856    0.771330967216   -0.883450000000
 C    4.083419605856   -0.761389032784    0.000000000000
 O    2.856569605856   -1.088439032784    0.000000000000
 N    5.068299605856   -1.664599032784    0.000000000000
 H    6.011399605856   -1.291539032784    0.000000000000
 C    4.938739605856   -3.117489032784    0.000000000000
 H    4.397499605856   -3.463209032784    0.888360000000
 H    4.397499605856   -3.463209032784   -0.888360000000
 H    5.952539605856   -3.532469032784    0.000000000000
RB    0.838599605856   -0.319529032784    2.111220000000
RB    0.838599605856   -0.319529032784   -2.111220000000
 O   -4.806032069907    1.831241696097    0.000000000000
 C   -6.032887954444    1.504190127415    0.000000000000
 C   -6.564783484392    0.091537719311    0.000000000000
 H   -5.780896245781   -0.668370626967    0.000000000000
 H   -7.214835099523   -0.028530264099   -0.883451226229
 H   -7.214835099523   -0.028530264099    0.883451226229
 N   -7.017770623688    2.407393908812    0.000000000000
 H   -7.960867109751    2.034338071200    0.000000000000
 C   -6.888213384697    3.860288921339    0.000000000000
 H   -6.346968368442    4.206008641663   -0.888361495878
 H   -6.346968368442    4.206008641663    0.888361495878
 H   -7.902006670472    4.275273219016    0.000000000000
