26

 C    4.658535092200    0.634794572640    0.000000000000
 H    3.874655092200    1.394704572640    0.000000000000
 H    5.308585092200    0.754864572640    0.883450000000
 H    5.308585092200    0.754864572640   -0.883450000000
 C    4.126635092200   -0.777855427360    0.000000000000
 O    2.899785092200   -1.104905427360    0.000000000000
 N    5.111515092200   -1.681065427360    0.000000000000
 H    6.054615092200   -1.308005427360    0.000000000000
 C    4.981955092200   -3.133955427360    0.000000000000
 H    4.440715092200   -3.479675427360    0.888360000000
 H    4.440715092200   -3.479675427360   -0.888360000000
 H    5.995755092200   -3.548935427360    0.000000000000
RB    0.881815092200   -0.335995427360    2.111220000000
RB    0.881815092200   -0.335995427360   -2.111220000000
 O   -4.949709307362    1.885987026616    0.000000000000
 C   -6.176565191898    1.558935457934    0.000000000000
 C   -6.708460721847    0.146283049830    0.000000000000
 H   -5.924573483236   -0.613625296448    0.000000000000
 H   -7.358512336978    0.026215066420   -0.883451226229
 H   -7.358512336978    0.026215066420    0.883451226229
 N   -7.161447861143    2.462139239331    0.000000000000
 H   -8.104544347206    2.089083401719    0.000000000000
 C   -7.031890622152    3.915034251858    0.000000000000
 H   -6.490645605897    4.260753972182   -0.888361495878
 H   -6.490645605897    4.260753972182    0.888361495878
 H   -8.045683907926    4.330018549535    0.000000000000
