26

 C    4.766573808061    0.593628586201    0.000000000000
 H    3.982693808061    1.353538586201    0.000000000000
 H    5.416623808061    0.713698586201    0.883450000000
 H    5.416623808061    0.713698586201   -0.883450000000
 C    4.234673808061   -0.819021413799    0.000000000000
 O    3.007823808061   -1.146071413799    0.000000000000
 N    5.219553808061   -1.722231413799    0.000000000000
 H    6.162653808061   -1.349171413799    0.000000000000
 C    5.089993808061   -3.175121413799    0.000000000000
 H    4.548753808061   -3.520841413799    0.888360000000
 H    4.548753808061   -3.520841413799   -0.888360000000
 H    6.103793808061   -3.590101413799    0.000000000000
RB    0.989853808061   -0.377161413799    2.111220000000
RB    0.989853808061   -0.377161413799   -2.111220000000
 O   -5.308902400999    2.022850352913    0.000000000000
 C   -6.535758285535    1.695798784231    0.000000000000
 C   -7.067653815483    0.283146376128    0.000000000000
 H   -6.283766576872   -0.476761970150    0.000000000000
 H   -7.717705430615    0.163078392718   -0.883451226229
 H   -7.717705430615    0.163078392718    0.883451226229
 N   -7.520640954780    2.599002565629    0.000000000000
 H   -8.463737440843    2.225946728017    0.000000000000
 C   -7.391083715789    4.051897578156    0.000000000000
 H   -6.849838699533    4.397617298480   -0.888361495878
 H   -6.849838699533    4.397617298480    0.888361495878
 H   -8.404877001563    4.466881875833    0.000000000000
