26

 C    4.853004780750    0.560695797050    0.000000000000
 H    4.069124780750    1.320605797050    0.000000000000
 H    5.503054780750    0.680765797050    0.883450000000
 H    5.503054780750    0.680765797050   -0.883450000000
 C    4.321104780750   -0.851954202950    0.000000000000
 O    3.094254780750   -1.179004202950    0.000000000000
 N    5.305984780750   -1.755164202950    0.000000000000
 H    6.249084780750   -1.382104202950    0.000000000000
 C    5.176424780750   -3.208054202950    0.000000000000
 H    4.635184780750   -3.553774202950    0.888360000000
 H    4.635184780750   -3.553774202950   -0.888360000000
 H    6.190224780750   -3.623034202950    0.000000000000
RB    1.076284780750   -0.410094202950    2.111220000000
RB    1.076284780750   -0.410094202950   -2.111220000000
 O   -5.596256875908    2.132341013952    0.000000000000
 C   -6.823112760445    1.805289445269    0.000000000000
 C   -7.355008290393    0.392637037166    0.000000000000
 H   -6.571121051782   -0.367271309112    0.000000000000
 H   -8.005059905525    0.272569053756   -0.883451226229
 H   -8.005059905525    0.272569053756    0.883451226229
 N   -7.807995429689    2.708493226667    0.000000000000
 H   -8.751091915752    2.335437389055    0.000000000000
 C   -7.678438190698    4.161388239194    0.000000000000
 H   -7.137193174443    4.507107959518   -0.888361495878
 H   -7.137193174443    4.507107959518    0.888361495878
 H   -8.692231476473    4.576372536871    0.000000000000
