26

 C    4.874612523922    0.552462599762    0.000000000000
 H    4.090732523922    1.312372599762    0.000000000000
 H    5.524662523922    0.672532599762    0.883450000000
 H    5.524662523922    0.672532599762   -0.883450000000
 C    4.342712523922   -0.860187400238    0.000000000000
 O    3.115862523922   -1.187237400238    0.000000000000
 N    5.327592523922   -1.763397400238    0.000000000000
 H    6.270692523922   -1.390337400238    0.000000000000
 C    5.198032523922   -3.216287400238    0.000000000000
 H    4.656792523922   -3.562007400238    0.888360000000
 H    4.656792523922   -3.562007400238   -0.888360000000
 H    6.211832523922   -3.631267400238    0.000000000000
RB    1.097892523922   -0.418327400238    2.111220000000
RB    1.097892523922   -0.418327400238   -2.111220000000
 O   -5.668095494635    2.159713679211    0.000000000000
 C   -6.894951379172    1.832662110529    0.000000000000
 C   -7.426846909120    0.420009702425    0.000000000000
 H   -6.642959670509   -0.339898643853    0.000000000000
 H   -8.076898524252    0.299941719015   -0.883451226229
 H   -8.076898524252    0.299941719015    0.883451226229
 N   -7.879834048417    2.735865891927    0.000000000000
 H   -8.822930534479    2.362810054315    0.000000000000
 C   -7.750276809426    4.188760904453    0.000000000000
 H   -7.209031793170    4.534480624777   -0.888361495878
 H   -7.209031793170    4.534480624777    0.888361495878
 H   -8.764070095200    4.603745202130    0.000000000000
