26

 C    4.961043496611    0.519529810611    0.000000000000
 H    4.177163496611    1.279439810611    0.000000000000
 H    5.611093496611    0.639599810611    0.883450000000
 H    5.611093496611    0.639599810611   -0.883450000000
 C    4.429143496611   -0.893120189389    0.000000000000
 O    3.202293496611   -1.220170189389    0.000000000000
 N    5.414023496611   -1.796330189389    0.000000000000
 H    6.357123496611   -1.423270189389    0.000000000000
 C    5.284463496611   -3.249220189389    0.000000000000
 H    4.743223496611   -3.594940189389    0.888360000000
 H    4.743223496611   -3.594940189389   -0.888360000000
 H    6.298263496611   -3.664200189389    0.000000000000
RB    1.184323496611   -0.451260189389    2.111220000000
RB    1.184323496611   -0.451260189389   -2.111220000000
 O   -5.955449969545    2.269204340249    0.000000000000
 C   -7.182305854082    1.942152771567    0.000000000000
 C   -7.714201384030    0.529500363463    0.000000000000
 H   -6.930314145419   -0.230407982815    0.000000000000
 H   -8.364252999161    0.409432380053   -0.883451226229
 H   -8.364252999161    0.409432380053    0.883451226229
 N   -8.167188523326    2.845356552965    0.000000000000
 H   -9.110285009389    2.472300715353    0.000000000000
 C   -8.037631284335    4.298251565491    0.000000000000
 H   -7.496386268080    4.643971285816   -0.888361495878
 H   -7.496386268080    4.643971285816    0.888361495878
 H   -9.051424570110    4.713235863169    0.000000000000
