17

 N   -1.755412295867   -1.434193582348   -0.003154387285
 C   -0.545224229023   -0.778987378672    0.000807236683
 N    0.688188185280   -1.377665073134    0.012845521588
 C    1.658611385336   -0.487488931523    0.000973064615
 N    1.455534547923    0.874149201991   -0.005862095727
 H    2.259361673174    1.494109741746   -0.087850118149
 N    2.984066139573   -0.906163653203   -0.077374238620
 H    3.638602344905   -0.374360428803    0.490266538110
 H    3.062871226964   -1.906863797138    0.084209099369
 C    0.196260805606    1.560182905522    0.007091690950
 O    0.168680436501    2.788355990299    0.003003562522
 C   -0.876524320370    0.586489516248    0.013292888890
 N   -2.247597622139    0.772820561561    0.013217704174
 C   -2.741121116650   -0.465782452484    0.002887604509
 H   -3.798619029918   -0.719929074316   -0.000059039917
 H   -1.880509292398   -2.440776667580   -0.011813938316
LI    0.846663096404   -2.364974012578    0.002513017618
