17

 N   -1.756115713837   -1.429811242929   -0.003108524700
 C   -0.545927646993   -0.774605039253    0.000853099268
 N    0.687484767310   -1.373282733715    0.012891384173
 C    1.657907967366   -0.483106592104    0.001018927200
 N    1.454831129953    0.878531541410   -0.005816233142
 H    2.258658255204    1.498492081165   -0.087804255564
 N    2.983362721603   -0.901781313784   -0.077328376035
 H    3.637898926935   -0.369978089384    0.490312400695
 H    3.062167808994   -1.902481457719    0.084254961954
 C    0.195557387636    1.564565244941    0.007137553535
 O    0.167977018531    2.792738329718    0.003049425107
 C   -0.877227738340    0.590871855667    0.013338751475
 N   -2.248301040109    0.777202900980    0.013263566759
 C   -2.741824534620   -0.461400113065    0.002933467094
 H   -3.799322447888   -0.715546734897   -0.000013177332
 H   -1.881212710368   -2.436394328161   -0.011768075731
LI    0.861807169547   -2.459322567103    0.001525629805
