17

 N   -1.757522549777   -1.421046564091   -0.003016799532
 C   -0.547334482933   -0.765840360415    0.000944824436
 N    0.686077931370   -1.364518054877    0.012983109341
 C    1.656501131426   -0.474341913266    0.001110652368
 N    1.453424294013    0.887296220248   -0.005724507974
 H    2.257251419264    1.507256760003   -0.087712530396
 N    2.981955885663   -0.893016634946   -0.077236650867
 H    3.636492090995   -0.361213410546    0.490404125863
 H    3.060760973054   -1.893716778881    0.084346687122
 C    0.194150551696    1.573329923779    0.007229278703
 O    0.166570182591    2.801503008556    0.003141150275
 C   -0.878634574280    0.599636534505    0.013430476643
 N   -2.249707876049    0.785967579818    0.013355291927
 C   -2.743231370560   -0.452635434227    0.003025192262
 H   -3.800729283828   -0.706782056059    0.000078547836
 H   -1.882619546308   -2.427629649323   -0.011676350563
LI    0.892095315832   -2.648019676154   -0.000449145820
