17

 N   -1.758929385717   -1.412281885253   -0.002925074363
 C   -0.548741318873   -0.757075681577    0.001036549605
 N    0.684671095430   -1.355753376039    0.013074834510
 C    1.655094295486   -0.465577234428    0.001202377537
 N    1.452017458073    0.896060899086   -0.005632782805
 H    2.255844583324    1.516021438841   -0.087620805227
 N    2.980549049723   -0.884251956108   -0.077144925698
 H    3.635085255055   -0.352448731708    0.490495851032
 H    3.059354137114   -1.884952100043    0.084438412291
 C    0.192743715756    1.582094602617    0.007321003872
 O    0.165163346651    2.810267687394    0.003232875444
 C   -0.880041410220    0.608401213343    0.013522201812
 N   -2.251114711989    0.794732258656    0.013447017096
 C   -2.744638206500   -0.443870755389    0.003116917431
 H   -3.802136119768   -0.698017377221    0.000170273005
 H   -1.884026382248   -2.418864970485   -0.011584625394
LI    0.922383462117   -2.836716785205   -0.002423921446
