17

 N   -1.760336221657   -1.403517206415   -0.002833349195
 C   -0.550148154813   -0.748311002739    0.001128274773
 N    0.683264259490   -1.346988697201    0.013166559678
 C    1.653687459546   -0.456812555590    0.001294102705
 N    1.450610622133    0.904825577924   -0.005541057637
 H    2.254437747384    1.524786117679   -0.087529080059
 N    2.979142213783   -0.875487277270   -0.077053200530
 H    3.633678419115   -0.343684052870    0.490587576200
 H    3.057947301174   -1.876187421205    0.084530137459
 C    0.191336879816    1.590859281455    0.007412729040
 O    0.163756510711    2.819032366232    0.003324600612
 C   -0.881448246160    0.617165892181    0.013613926980
 N   -2.252521547929    0.803496937494    0.013538742264
 C   -2.746045042440   -0.435106076551    0.003208642599
 H   -3.803542955708   -0.689252698383    0.000261998173
 H   -1.885433218188   -2.410100291647   -0.011492900226
LI    0.952671608401   -3.025413894256   -0.004398697072
