17

 N   -1.818719913166   -1.039783034642    0.000973245300
 C   -0.608531846322   -0.384576830966    0.004934869268
 N    0.624880567981   -0.983254525428    0.016973154173
 C    1.595303768037   -0.093078383817    0.005100697200
 N    1.392226930624    1.268559749697   -0.001734463142
 H    2.196054055875    1.888520289452   -0.083722485564
 N    2.920758522274   -0.511753105497   -0.073246606035
 H    3.575294727606    0.020050118903    0.494394170695
 H    2.999563609665   -1.512453249432    0.088336731954
 C    0.132953188307    1.954593453228    0.011219323535
 O    0.105372819202    3.182766538005    0.007131195107
 C   -0.939831937669    0.980900063954    0.017420521475
 N   -2.310905239438    1.167231109267    0.017345336759
 C   -2.804428733949   -0.071371904778    0.007015237094
 H   -3.861926647217   -0.325518526610    0.004068592668
 H   -1.943816909697   -2.046366119874   -0.007686305731
LI    2.209629679226  -10.856343919867   -0.086351885531
