17

 N   -1.763853311507   -1.381605509321   -0.002604036273
 C   -0.553665244663   -0.726399305645    0.001357587695
 N    0.679747169640   -1.325077000107    0.013395872600
 C    1.650170369696   -0.434900858496    0.001523415627
 N    1.447093532283    0.926737275018   -0.005311744715
 H    2.250920657534    1.546697814773   -0.087299767137
 N    2.975625123933   -0.853575580176   -0.076823887608
 H    3.630161329265   -0.321772355776    0.490816889122
 H    3.054430211324   -1.854275724111    0.084759450381
 C    0.187819789966    1.612770978549    0.007642041962
 O    0.160239420861    2.840944063326    0.003553913534
 C   -0.884965336010    0.639077589275    0.013843239902
 N   -2.256038637779    0.825408634588    0.013768055186
 C   -2.749562132290   -0.413194379457    0.003437955521
 H   -3.807060045558   -0.667341001289    0.000491311095
 H   -1.888950308038   -2.388188594553   -0.011263587304
LI    1.028391974114   -3.497156666883   -0.009335636135
