17

 N   -1.766666983387   -1.364076151645   -0.002420585936
 C   -0.556478916543   -0.708869947969    0.001541038032
 N    0.676933497760   -1.307547642431    0.013579322937
 C    1.647356697816   -0.417371500820    0.001706865964
 N    1.444279860403    0.944266632694   -0.005128294378
 H    2.248106985654    1.564227172449   -0.087116316800
 N    2.972811452053   -0.836046222500   -0.076640437271
 H    3.627347657385   -0.304242998100    0.491000339459
 H    3.051616539444   -1.836746366435    0.084942900718
 C    0.185006118086    1.630300336225    0.007825492299
 O    0.157425748981    2.858473421002    0.003737363871
 C   -0.887779007890    0.656606946951    0.014026690239
 N   -2.258852309659    0.842937992264    0.013951505523
 C   -2.752375804170   -0.395665021781    0.003621405858
 H   -3.809873717438   -0.649811643613    0.000674761432
 H   -1.891763979918   -2.370659236877   -0.011080136967
LI    1.088968266684   -3.874550884985   -0.013285187386
