17

 N   -1.768777237297   -1.350929133388   -0.002282998183
 C   -0.558589170453   -0.695722929712    0.001678625785
 N    0.674823243850   -1.294400624174    0.013716910690
 C    1.645246443906   -0.404224482563    0.001844453717
 N    1.442169606493    0.957413650951   -0.004990706625
 H    2.245996731744    1.577374190706   -0.086978729047
 N    2.970701198143   -0.822899204243   -0.076502849518
 H    3.625237403475   -0.291095979843    0.491137927212
 H    3.049506285534   -1.823599348178    0.085080488471
 C    0.182895864176    1.643447354482    0.007963080052
 O    0.155315495071    2.871620439259    0.003874951624
 C   -0.889889261800    0.669753965208    0.014164277992
 N   -2.260962563569    0.856085010521    0.014089093276
 C   -2.754486058080   -0.382518003524    0.003758993611
 H   -3.811983971348   -0.636664625356    0.000812349185
 H   -1.893874233828   -2.357512218620   -0.010942549214
LI    1.134400486111   -4.157596548561   -0.016247350825
