17

 N   -1.770887491207   -1.337782115131   -0.002145410431
 C   -0.560699424363   -0.682575911455    0.001816213537
 N    0.672712989940   -1.281253605917    0.013854498442
 C    1.643136189996   -0.391077464306    0.001982041469
 N    1.440059352583    0.970560669208   -0.004853118873
 H    2.243886477834    1.590521208963   -0.086841141295
 N    2.968590944233   -0.809752185986   -0.076365261766
 H    3.623127149565   -0.277948961586    0.491275514964
 H    3.047396031624   -1.810452329921    0.085218076223
 C    0.180785610266    1.656594372739    0.008100667804
 O    0.153205241161    2.884767457516    0.004012539376
 C   -0.891999515710    0.682900983465    0.014301865744
 N   -2.263072817479    0.869232028778    0.014226681028
 C   -2.756596311990   -0.369370985267    0.003896581363
 H   -3.814094225258   -0.623517607099    0.000949936937
 H   -1.895984487738   -2.344365200363   -0.010804961462
LI    1.179832705538   -4.440642212137   -0.019209514263
