17

 N   -1.773701163087   -1.320252757455   -0.001961960093
 C   -0.563513096243   -0.665046553779    0.001999663875
 N    0.669899318060   -1.263724248241    0.014037948780
 C    1.640322518116   -0.373548106630    0.002165491807
 N    1.437245680703    0.988090026884   -0.004669668535
 H    2.241072805954    1.608050566639   -0.086657690957
 N    2.965777272353   -0.792222828310   -0.076181811428
 H    3.620313477685   -0.260419603910    0.491458965302
 H    3.044582359744   -1.792922972245    0.085401526561
 C    0.177971938386    1.674123730415    0.008284118142
 O    0.150391569281    2.902296815192    0.004195989714
 C   -0.894813187590    0.700430341141    0.014485316082
 N   -2.265886489359    0.886761386454    0.014410131366
 C   -2.759409983870   -0.351841627591    0.004080031701
 H   -3.816907897138   -0.605988249423    0.001133387275
 H   -1.898798159618   -2.326835842687   -0.010621511124
LI    1.240408998108   -4.818036430239   -0.023159065514
