17

 N   -1.775811416997   -1.307105739198   -0.001824372341
 C   -0.565623350153   -0.651899535522    0.002137251627
 N    0.667789064150   -1.250577229984    0.014175536532
 C    1.638212264206   -0.360401088373    0.002303079559
 N    1.435135426793    1.001237045141   -0.004532080783
 H    2.238962552044    1.621197584896   -0.086520103205
 N    2.963667018443   -0.779075810053   -0.076044223676
 H    3.618203223775   -0.247272585653    0.491596553054
 H    3.042472105834   -1.779775953988    0.085539114313
 C    0.175861684476    1.687270748672    0.008421705894
 O    0.148281315371    2.915443833449    0.004333577466
 C   -0.896923441500    0.713577359398    0.014622903834
 N   -2.267996743269    0.899908404711    0.014547719118
 C   -2.761520237780   -0.338694609334    0.004217619453
 H   -3.819018151048   -0.592841231166    0.001270975027
 H   -1.900908413528   -2.313688824430   -0.010483923372
LI    1.285841217536   -5.101082093816   -0.026121228952
