17

 N   -1.776514834967   -1.302723399780   -0.001778509756
 C   -0.566326768123   -0.647517196104    0.002183114212
 N    0.667085646180   -1.246194890566    0.014221399117
 C    1.637508846236   -0.356018748955    0.002348942144
 N    1.434432008823    1.005619384559   -0.004486218198
 H    2.238259134074    1.625579924314   -0.086474240620
 N    2.962963600473   -0.774693470635   -0.075998361091
 H    3.617499805805   -0.242890246235    0.491642415639
 H    3.041768687864   -1.775393614570    0.085584976898
 C    0.175158266506    1.691653088090    0.008467568479
 O    0.147577897401    2.919826172867    0.004379440051
 C   -0.897626859470    0.717959698816    0.014668766419
 N   -2.268700161239    0.904290744129    0.014593581703
 C   -2.762223655750   -0.334312269916    0.004263482038
 H   -3.819721569018   -0.588458891748    0.001316837612
 H   -1.901611831498   -2.309306485012   -0.010438060787
LI    1.300985290678   -5.195430648341   -0.027108616765
