17

 N   -1.779328506847   -1.285194042104   -0.001595059419
 C   -0.569140440003   -0.629987838428    0.002366564549
 N    0.664271974300   -1.228665532890    0.014404849454
 C    1.634695174356   -0.338489391279    0.002532392481
 N    1.431618336943    1.023148742235   -0.004302767861
 H    2.235445462194    1.643109281990   -0.086290790283
 N    2.960149928593   -0.757164112959   -0.075814910754
 H    3.614686133925   -0.225360888559    0.491825865976
 H    3.038955015984   -1.757864256894    0.085768427235
 C    0.172344594626    1.709182445766    0.008651018816
 O    0.144764225521    2.937355530543    0.004562890388
 C   -0.900440531350    0.735489056492    0.014852216756
 N   -2.271513833119    0.921820101805    0.014777032040
 C   -2.765037327630   -0.316782912240    0.004446932375
 H   -3.822535240898   -0.570929534072    0.001500287949
 H   -1.904425503378   -2.291777127336   -0.010254610450
LI    1.361561583248   -5.572824866443   -0.031058168016
