17

 N   -1.780735342787   -1.276429363266   -0.001503334251
 C   -0.570547275943   -0.621223159590    0.002458289717
 N    0.662865138360   -1.219900854052    0.014496574622
 C    1.633288338416   -0.329724712441    0.002624117649
 N    1.430211501003    1.031913421073   -0.004211042693
 H    2.234038626254    1.651873960828   -0.086199065115
 N    2.958743092653   -0.748399434121   -0.075723185586
 H    3.613279297985   -0.216596209721    0.491917591144
 H    3.037548180044   -1.749099578056    0.085860152403
 C    0.170937758686    1.717947124604    0.008742743984
 O    0.143357389581    2.946120209381    0.004654615556
 C   -0.901847367290    0.744253735330    0.014943941924
 N   -2.272920669059    0.930584780643    0.014868757208
 C   -2.766444163570   -0.308018233402    0.004538657543
 H   -3.823942076838   -0.562164855234    0.001592013117
 H   -1.905832339318   -2.283012448498   -0.010162885282
LI    1.391849729533   -5.761521975494   -0.033032943642
