17

 N   -1.782845596697   -1.263282345009   -0.001365746498
 C   -0.572657529853   -0.608076141333    0.002595877470
 N    0.660754884450   -1.206753835795    0.014634162375
 C    1.631178084506   -0.316577694184    0.002761705402
 N    1.428101247093    1.045060439330   -0.004073454940
 H    2.231928372344    1.665020979085   -0.086061477362
 N    2.956632838743   -0.735252415864   -0.075585597833
 H    3.611169044075   -0.203449191464    0.492055178897
 H    3.035437926134   -1.735952559799    0.085997740156
 C    0.168827504776    1.731094142861    0.008880331737
 O    0.141247135671    2.959267227638    0.004792203309
 C   -0.903957621200    0.757400753587    0.015081529677
 N   -2.275030922969    0.943731798900    0.015006344961
 C   -2.768554417480   -0.294871215145    0.004676245296
 H   -3.826052330748   -0.549017836977    0.001729600870
 H   -1.907942593228   -2.269865430241   -0.010025297529
LI    1.437281948960   -6.044567639070   -0.035995107080
