17

 N   -1.783549014667   -1.258900005590   -0.001319883914
 C   -0.573360947823   -0.603693801914    0.002641740054
 N    0.660051466480   -1.202371496376    0.014680024959
 C    1.630474666536   -0.312195354765    0.002807567986
 N    1.427397829123    1.049442778749   -0.004027592356
 H    2.231224954374    1.669403318504   -0.086015614778
 N    2.955929420773   -0.730870076445   -0.075539735249
 H    3.610465626105   -0.199066852045    0.492101041481
 H    3.034734508164   -1.731570220380    0.086043602740
 C    0.168124086806    1.735476482280    0.008926194321
 O    0.140543717701    2.963649567057    0.004838065893
 C   -0.904661039170    0.761783093006    0.015127392261
 N   -2.275734340939    0.948114138319    0.015052207545
 C   -2.769257835450   -0.290488875726    0.004722107880
 H   -3.826755748718   -0.544635497558    0.001775463454
 H   -1.908646011198   -2.265483090822   -0.009979434945
LI    1.452426022103   -6.138916193595   -0.036982494893
