17

 N   -1.784955850607   -1.250135326752   -0.001228158745
 C   -0.574767783763   -0.594929123076    0.002733465223
 N    0.658644630540   -1.193606817538    0.014771750128
 C    1.629067830596   -0.303430675927    0.002899293155
 N    1.425990993183    1.058207457587   -0.003935867187
 H    2.229818118434    1.678167997342   -0.085923889609
 N    2.954522584833   -0.722105397607   -0.075448010080
 H    3.609058790165   -0.190302173207    0.492192766650
 H    3.033327672224   -1.722805541542    0.086135327909
 C    0.166717250866    1.744241161118    0.009017919490
 O    0.139136881761    2.972414245895    0.004929791062
 C   -0.906067875110    0.770547771844    0.015219117430
 N   -2.277141176879    0.956878817157    0.015143932714
 C   -2.770664671390   -0.281724196888    0.004813833049
 H   -3.828162584658   -0.535870818720    0.001867188623
 H   -1.910052847138   -2.256718411984   -0.009887709776
LI    1.482714168388   -6.327613302646   -0.038957270518
