17

 N   -1.785659268577   -1.245752987333   -0.001182296161
 C   -0.575471201733   -0.590546783657    0.002779327807
 N    0.657941212570   -1.189224478119    0.014817612712
 C    1.628364412626   -0.299048336508    0.002945155739
 N    1.425287575213    1.062589797006   -0.003890004603
 H    2.229114700464    1.682550336761   -0.085878027025
 N    2.953819166863   -0.717723058188   -0.075402147496
 H    3.608355372195   -0.185919833788    0.492238629234
 H    3.032624254254   -1.718423202123    0.086181190493
 C    0.166013832896    1.748623500537    0.009063782074
 O    0.138433463791    2.976796585314    0.004975653646
 C   -0.906771293080    0.774930111263    0.015264980014
 N   -2.277844594849    0.961261156576    0.015189795298
 C   -2.771368089360   -0.277341857469    0.004859695633
 H   -3.828866002628   -0.531488479301    0.001913051207
 H   -1.910756265108   -2.252336072565   -0.009841847192
LI    1.497858241530   -6.421961857172   -0.039944658331
