17

 N   -1.786362686547   -1.241370647914   -0.001136433576
 C   -0.576174619703   -0.586164444238    0.002825190392
 N    0.657237794600   -1.184842138700    0.014863475297
 C    1.627660994656   -0.294665997089    0.002991018324
 N    1.424584157243    1.066972136425   -0.003844142018
 H    2.228411282494    1.686932676180   -0.085832164440
 N    2.953115748893   -0.713340718769   -0.075356284911
 H    3.607651954225   -0.181537494369    0.492284491819
 H    3.031920836284   -1.714040862704    0.086227053078
 C    0.165310414926    1.753005839956    0.009109644659
 O    0.137730045821    2.981178924733    0.005021516231
 C   -0.907474711050    0.779312450682    0.015310842599
 N   -2.278548012819    0.965643495995    0.015235657883
 C   -2.772071507330   -0.272959518050    0.004905558218
 H   -3.829569420598   -0.527106139882    0.001958913792
 H   -1.911459683078   -2.247953733146   -0.009795984607
LI    1.513002314673   -6.516310411697   -0.040932046144
