17

 N   -1.789879776397   -1.219458950819   -0.000907120655
 C   -0.579691709553   -0.564252747143    0.003054503313
 N    0.653720704750   -1.162930441605    0.015092788218
 C    1.624143904806   -0.272754299994    0.003220331245
 N    1.421067067393    1.088883833520   -0.003614829097
 H    2.224894192644    1.708844373275   -0.085602851519
 N    2.949598659043   -0.691429021674   -0.075126971990
 H    3.604134864375   -0.159625797274    0.492513804740
 H    3.028403746434   -1.692129165609    0.086456365999
 C    0.161793325076    1.774917537051    0.009338957580
 O    0.134212955971    3.003090621828    0.005250829152
 C   -0.910991800900    0.801224147777    0.015540155520
 N   -2.282065102669    0.987555193090    0.015464970804
 C   -2.775588597180   -0.251047820955    0.005134871139
 H   -3.833086510448   -0.505194442787    0.002188226713
 H   -1.914976772928   -2.226042036051   -0.009566671686
LI    1.588722680385   -6.988053184324   -0.045868985207
