17

 N   -1.791990030307   -1.206311932563   -0.000769532902
 C   -0.581801963463   -0.551105728887    0.003192091066
 N    0.651610450840   -1.149783423349    0.015230375971
 C    1.622033650896   -0.259607281738    0.003357918998
 N    1.418956813483    1.102030851776   -0.003477241344
 H    2.222783938734    1.721991391531   -0.085465263766
 N    2.947488405133   -0.678282003418   -0.074989384237
 H    3.602024610465   -0.146478779018    0.492651392493
 H    3.026293492524   -1.678982147353    0.086593953752
 C    0.159683071166    1.788064555307    0.009476545333
 O    0.132102702061    3.016237640084    0.005388416905
 C   -0.913102054810    0.814371166033    0.015677743273
 N   -2.284175356579    1.000702211346    0.015602558557
 C   -2.777698851090   -0.237900802699    0.005272458892
 H   -3.835196764358   -0.492047424531    0.002325814466
 H   -1.917087026838   -2.212895017795   -0.009429083933
LI    1.634154899813   -7.271098847900   -0.048831148646
