17

 N   -1.792693448277   -1.201929593144   -0.000723670318
 C   -0.582505381433   -0.546723389468    0.003237953650
 N    0.650907032870   -1.145401083930    0.015276238555
 C    1.621330232926   -0.255224942319    0.003403781582
 N    1.418253395513    1.106413191195   -0.003431378760
 H    2.222080520764    1.726373730950   -0.085419401182
 N    2.946784987163   -0.673899663999   -0.074943521653
 H    3.601321192495   -0.142096439599    0.492697255077
 H    3.025590074554   -1.674599807934    0.086639816336
 C    0.158979653196    1.792446894726    0.009522407917
 O    0.131399284091    3.020619979503    0.005434279489
 C   -0.913805472780    0.818753505452    0.015723605857
 N   -2.284878774549    1.005084550765    0.015648421141
 C   -2.778402269060   -0.233518463280    0.005318321476
 H   -3.835900182328   -0.487665085112    0.002371677050
 H   -1.917790444808   -2.208512678376   -0.009383221349
LI    1.649298972955   -7.365447402426   -0.049818536459
