17

 N   -1.793396866247   -1.197547253725   -0.000677807734
 C   -0.583208799403   -0.542341050049    0.003283816234
 N    0.650203614900   -1.141018744511    0.015322101139
 C    1.620626814956   -0.250842602900    0.003449644166
 N    1.417549977543    1.110795530614   -0.003385516176
 H    2.221377102794    1.730756070369   -0.085373538598
 N    2.946081569193   -0.669517324580   -0.074897659069
 H    3.600617774525   -0.137714100180    0.492743117661
 H    3.024886656584   -1.670217468515    0.086685678920
 C    0.158276235226    1.796829234145    0.009568270501
 O    0.130695866121    3.025002318922    0.005480142073
 C   -0.914508890750    0.823135844871    0.015769468441
 N   -2.285582192519    1.009466890184    0.015694283725
 C   -2.779105687030   -0.229136123861    0.005364184060
 H   -3.836603600298   -0.483282745693    0.002417539634
 H   -1.918493862778   -2.204130338957   -0.009337358765
LI    1.664443046097   -7.459795956951   -0.050805924271
