17

 N   -1.794100284217   -1.193164914306   -0.000631945149
 C   -0.583912217373   -0.537958710630    0.003329678819
 N    0.649500196930   -1.136636405092    0.015367963724
 C    1.619923396986   -0.246460263481    0.003495506751
 N    1.416846559573    1.115177870033   -0.003339653591
 H    2.220673684824    1.735138409788   -0.085327676013
 N    2.945378151223   -0.665134985161   -0.074851796484
 H    3.599914356555   -0.133331760761    0.492788980246
 H    3.024183238614   -1.665835129096    0.086731541505
 C    0.157572817256    1.801211573564    0.009614133086
 O    0.129992448151    3.029384658341    0.005526004658
 C   -0.915212308720    0.827518184290    0.015815331026
 N   -2.286285610489    1.013849229603    0.015740146310
 C   -2.779809105000   -0.224753784442    0.005410046645
 H   -3.837307018268   -0.478900406274    0.002463402219
 H   -1.919197280748   -2.199747999538   -0.009291496180
LI    1.679587119240   -7.554144511477   -0.051793312084
