17

 N   -1.795507120157   -1.184400235468   -0.000540219981
 C   -0.585319053313   -0.529194031792    0.003421403987
 N    0.648093360990   -1.127871726254    0.015459688892
 C    1.618516561046   -0.237695584643    0.003587231919
 N    1.415439723633    1.123942548871   -0.003247928423
 H    2.219266848884    1.743903088626   -0.085235950845
 N    2.943971315283   -0.656370306323   -0.074760071316
 H    3.598507520615   -0.124567081923    0.492880705414
 H    3.022776402674   -1.657070450258    0.086823266673
 C    0.156165981316    1.809976252402    0.009705858254
 O    0.128585612211    3.038149337179    0.005617729826
 C   -0.916619144660    0.836282863128    0.015907056194
 N   -2.287692446429    1.022613908441    0.015831871478
 C   -2.781215940940   -0.215989105604    0.005501771813
 H   -3.838713854208   -0.470135727436    0.002555127387
 H   -1.920604116688   -2.190983320700   -0.009199771012
LI    1.709875265525   -7.742841620528   -0.053768087710
