17

 N   -1.796913956097   -1.175635556630   -0.000448494812
 C   -0.586725889253   -0.520429352954    0.003513129156
 N    0.646686525050   -1.119107047416    0.015551414061
 C    1.617109725106   -0.228930905805    0.003678957088
 N    1.414032887693    1.132707227709   -0.003156203254
 H    2.217860012944    1.752667767464   -0.085144225676
 N    2.942564479343   -0.647605627485   -0.074668346147
 H    3.597100684675   -0.115802403085    0.492972430583
 H    3.021369566734   -1.648305771420    0.086914991842
 C    0.154759145376    1.818740931240    0.009797583423
 O    0.127178776271    3.046914016017    0.005709454995
 C   -0.918025980600    0.845047541966    0.015998781363
 N   -2.289099282369    1.031378587279    0.015923596647
 C   -2.782622776880   -0.207224426766    0.005593496982
 H   -3.840120690148   -0.461371048598    0.002646852556
 H   -1.922010952628   -2.182218641862   -0.009108045843
LI    1.740163411810   -7.931538729579   -0.055742863335
