17

 N   -1.798320792037   -1.166870877792   -0.000356769644
 C   -0.588132725193   -0.511664674116    0.003604854324
 N    0.645279689110   -1.110342368578    0.015643139229
 C    1.615702889166   -0.220166226967    0.003770682256
 N    1.412626051753    1.141471906547   -0.003064478086
 H    2.216453177004    1.761432446302   -0.085052500508
 N    2.941157643403   -0.638840948647   -0.074576620979
 H    3.595693848735   -0.107037724247    0.493064155751
 H    3.019962730794   -1.639541092582    0.087006717010
 C    0.153352309436    1.827505610078    0.009889308591
 O    0.125771940331    3.055678694855    0.005801180163
 C   -0.919432816540    0.853812220804    0.016090506531
 N   -2.290506118309    1.040143266117    0.016015321815
 C   -2.784029612820   -0.198459747928    0.005685222150
 H   -3.841527526088   -0.452606369760    0.002738577724
 H   -1.923417788568   -2.173453963024   -0.009016320675
LI    1.770451558095   -8.120235838629   -0.057717638961
