17

 N   -1.799727627977   -1.158106198954   -0.000265044475
 C   -0.589539561133   -0.502899995278    0.003696579493
 N    0.643872853170   -1.101577689740    0.015734864398
 C    1.614296053226   -0.211401548129    0.003862407425
 N    1.411219215813    1.150236585385   -0.002972752917
 H    2.215046341064    1.770197125140   -0.084960775339
 N    2.939750807463   -0.630076269809   -0.074484895810
 H    3.594287012795   -0.098273045409    0.493155880920
 H    3.018555894854   -1.630776413744    0.087098442179
 C    0.151945473496    1.836270288916    0.009981033760
 O    0.124365104391    3.064443373693    0.005892905332
 C   -0.920839652480    0.862576899642    0.016182231700
 N   -2.291912954249    1.048907944955    0.016107046984
 C   -2.785436448760   -0.189695069090    0.005776947319
 H   -3.842934362028   -0.443841690922    0.002830302893
 H   -1.924824624508   -2.164689284186   -0.008924595506
LI    1.800739704380   -8.308932947680   -0.059692414586
