17

 N   -1.801837881887   -1.144959180697   -0.000127456722
 C   -0.591649815043   -0.489752977021    0.003834167246
 N    0.641762599260   -1.088430671483    0.015872452151
 C    1.612185799316   -0.198254529872    0.003999995178
 N    1.409108961903    1.163383603642   -0.002835165164
 H    2.212936087154    1.783344143397   -0.084823187586
 N    2.937640553553   -0.616929251552   -0.074347308057
 H    3.592176758885   -0.085126027152    0.493293468673
 H    3.016445640944   -1.617629395487    0.087236029932
 C    0.149835219586    1.849417307173    0.010118621513
 O    0.122254850481    3.077590391950    0.006030493085
 C   -0.922949906390    0.875723917899    0.016319819453
 N   -2.294023208159    1.062054963212    0.016244634737
 C   -2.787546702670   -0.176548050833    0.005914535072
 H   -3.845044615938   -0.430694672665    0.002967890646
 H   -1.926934878418   -2.151542265929   -0.008787007753
LI    1.846171923807   -8.591978611257   -0.062654578024
