17

 N   -1.805354971737   -1.123047483602    0.000101856199
 C   -0.595166904893   -0.467841279926    0.004063480167
 N    0.638245509410   -1.066518974388    0.016101765072
 C    1.608668709466   -0.176342832777    0.004229308099
 N    1.405591872053    1.185295300737   -0.002605852243
 H    2.209418997304    1.805255840492   -0.084593874665
 N    2.934123463703   -0.595017554457   -0.074117995136
 H    3.588659669035   -0.063214330057    0.493522781594
 H    3.012928551094   -1.595717698392    0.087465342853
 C    0.146318129736    1.871329004268    0.010347934434
 O    0.118737760631    3.099502089045    0.006259806006
 C   -0.926466996240    0.897635614994    0.016549132374
 N   -2.297540298009    1.083966660307    0.016473947658
 C   -2.791063792520   -0.154636353738    0.006143847993
 H   -3.848561705788   -0.408782975570    0.003197203567
 H   -1.930451968268   -2.129630568834   -0.008557694832
LI    1.921892289519   -9.063721383884   -0.067591517088
