17

 N   -1.809575479557   -1.096753447089    0.000377031705
 C   -0.599387412713   -0.441547243413    0.004338655673
 N    0.634025001590   -1.040224937875    0.016376940578
 C    1.604448201646   -0.150048796264    0.004504483605
 N    1.401371364233    1.211589337250   -0.002330676737
 H    2.205198489484    1.831549877005   -0.084318699159
 N    2.929902955883   -0.568723517944   -0.073842819630
 H    3.584439161215   -0.036920293544    0.493797957100
 H    3.008708043274   -1.569423661879    0.087740518359
 C    0.142097621916    1.897623040781    0.010623109940
 O    0.114517252811    3.125796125558    0.006534981512
 C   -0.930687504060    0.923929651507    0.016824307880
 N   -2.301760805829    1.110260696820    0.016749123164
 C   -2.795284300340   -0.128342317225    0.006419023499
 H   -3.852782213608   -0.382488939057    0.003472379073
 H   -1.934672476088   -2.103336532321   -0.008282519326
LI    2.012756728374   -9.629812711036   -0.073515843965
