17

 N   -1.810982315497   -1.087988768251    0.000468756873
 C   -0.600794248653   -0.432782564575    0.004430380841
 N    0.632618165650   -1.031460259037    0.016468665746
 C    1.603041365706   -0.141284117426    0.004596208773
 N    1.399964528293    1.220354016088   -0.002238951569
 H    2.203791653544    1.840314555843   -0.084226973991
 N    2.928496119943   -0.559958839106   -0.073751094462
 H    3.583032325275   -0.028155614706    0.493889682268
 H    3.007301207334   -1.560658983041    0.087832243527
 C    0.140690785976    1.906387719619    0.010714835108
 O    0.113110416871    3.134560804396    0.006626706680
 C   -0.932094340000    0.932694330345    0.016916033048
 N   -2.303167641769    1.119025375658    0.016840848332
 C   -2.796691136280   -0.119577638387    0.006510748667
 H   -3.854189049548   -0.373724260219    0.003564104241
 H   -1.936079312028   -2.094571853483   -0.008190794158
LI    2.043044874659   -9.818509820087   -0.075490619590
