17

 N   -1.812389151437   -1.079224089413    0.000560482042
 C   -0.602201084593   -0.424017885737    0.004522106010
 N    0.631211329710   -1.022695580199    0.016560390915
 C    1.601634529766   -0.132519438588    0.004687933942
 N    1.398557692353    1.229118694926   -0.002147226400
 H    2.202384817604    1.849079234681   -0.084135248822
 N    2.927089284003   -0.551194160268   -0.073659369293
 H    3.581625489335   -0.019390935868    0.493981407437
 H    3.005894371394   -1.551894304203    0.087923968696
 C    0.139283950036    1.915152398457    0.010806560277
 O    0.111703580931    3.143325483234    0.006718431849
 C   -0.933501175940    0.941459009183    0.017007758217
 N   -2.304574477709    1.127790054496    0.016932573501
 C   -2.798097972220   -0.110812959549    0.006602473836
 H   -3.855595885488   -0.364959581381    0.003655829410
 H   -1.937486147968   -2.085807174645   -0.008099068989
LI    2.073333020944  -10.007206929138   -0.077465395216
