17

 N   -1.813795987377   -1.070459410575    0.000652207211
 C   -0.603607920533   -0.415253206899    0.004613831179
 N    0.629804493770   -1.013930901361    0.016652116084
 C    1.600227693826   -0.123754759750    0.004779659111
 N    1.397150856413    1.237883373764   -0.002055501231
 H    2.200977981664    1.857843913519   -0.084043523653
 N    2.925682448063   -0.542429481430   -0.073567644124
 H    3.580218653395   -0.010626257030    0.494073132606
 H    3.004487535454   -1.543129625365    0.088015693865
 C    0.137877114096    1.923917077295    0.010898285446
 O    0.110296744991    3.152090162072    0.006810157018
 C   -0.934908011880    0.950223688021    0.017099483386
 N   -2.305981313649    1.136554733334    0.017024298670
 C   -2.799504808160   -0.102048280711    0.006694199005
 H   -3.857002721428   -0.356194902543    0.003747554579
 H   -1.938892983908   -2.077042495807   -0.008007343820
LI    2.103621167229  -10.195904038189   -0.079440170841
