17

 N   -1.816609659257   -1.052930052899    0.000835657548
 C   -0.606421592413   -0.397723849223    0.004797281516
 N    0.626990821890   -0.996401543685    0.016835566421
 C    1.597414021946   -0.106225402074    0.004963109448
 N    1.394337184533    1.255412731440   -0.001872050894
 H    2.198164309784    1.875373271195   -0.083860073316
 N    2.922868776183   -0.524900123754   -0.073384193787
 H    3.577404981515    0.006903100646    0.494256582943
 H    3.001673863574   -1.525600267689    0.088199144202
 C    0.135063442216    1.941446434971    0.011081735783
 O    0.107483073111    3.169619519748    0.006993607355
 C   -0.937721683760    0.967753045697    0.017282933723
 N   -2.308794985529    1.154084091010    0.017207749007
 C   -2.802318480040   -0.084518923035    0.006877649342
 H   -3.859816393308   -0.338665544867    0.003931004916
 H   -1.941706655788   -2.059513138131   -0.007823893483
LI    2.164197459799  -10.573298256291   -0.083389722092
