17

 N   -1.817313077227   -1.048547713480    0.000881520132
 C   -0.607125010383   -0.393341509804    0.004843144100
 N    0.626287403920   -0.992019204266    0.016881429005
 C    1.596710603976   -0.101843062655    0.005008972032
 N    1.393633766563    1.259795070859   -0.001826188310
 H    2.197460891814    1.879755610614   -0.083814210732
 N    2.922165358213   -0.520517784335   -0.073338331203
 H    3.576701563545    0.011285440065    0.494302445527
 H    3.000970445604   -1.521217928270    0.088245006786
 C    0.134360024246    1.945828774390    0.011127598367
 O    0.106779655141    3.174001859167    0.007039469939
 C   -0.938425101730    0.972135385116    0.017328796307
 N   -2.309498403499    1.158466430429    0.017253611591
 C   -2.803021898010   -0.080136583616    0.006923511926
 H   -3.860519811278   -0.334283205448    0.003976867500
 H   -1.942410073758   -2.055130798712   -0.007778030899
LI    2.179341532941  -10.667646810816   -0.084377109905
