17

 N   -1.818016495197   -1.044165374061    0.000927382716
 C   -0.607828428353   -0.388959170385    0.004889006684
 N    0.625583985950   -0.987636864847    0.016927291589
 C    1.596007186006   -0.097460723236    0.005054834616
 N    1.392930348593    1.264177410278   -0.001780325726
 H    2.196757473844    1.884137950033   -0.083768348148
 N    2.921461940243   -0.516135444916   -0.073292468619
 H    3.575998145575    0.015667779484    0.494348308111
 H    3.000267027634   -1.516835588851    0.088290869370
 C    0.133656606276    1.950211113809    0.011173460951
 O    0.106076237171    3.178384198586    0.007085332523
 C   -0.939128519700    0.976517724535    0.017374658891
 N   -2.310201821469    1.162848769848    0.017299474175
 C   -2.803725315980   -0.075754244197    0.006969374510
 H   -3.861223229248   -0.329900866029    0.004022730084
 H   -1.943113491728   -2.050748459293   -0.007732168315
LI    2.194485606084  -10.761995365341   -0.085364497718
