8

 C    0.050754737365   -1.621372148705    0.000000000000
 H    1.086254737365   -1.997460148705    0.000000000000
 H   -0.482445262635   -2.002075148705    0.888337000000
 H   -0.482445262635   -2.002075148705   -0.888337000000
 C    0.008988737365   -0.065288148705    0.000000000000
 O   -1.158207262635    0.440934851295    0.000000000000
 O    1.133059737365    0.530129851295    0.000000000000
LI   -0.062286609757    1.533123508189    0.000000000000
