8

 C    0.052174754751   -1.653217273779    0.000000000000
 H    1.087674754751   -2.029305273779    0.000000000000
 H   -0.481025245249   -2.033920273779    0.888337000000
 H   -0.481025245249   -2.033920273779   -0.888337000000
 C    0.010408754751   -0.097133273779    0.000000000000
 O   -1.156787245249    0.409089726221    0.000000000000
 O    1.134479754751    0.498284726221    0.000000000000
LI   -0.074230719956    1.800980568782    0.000000000000
