8

 C    0.090515224191   -2.513035650792    0.000000000000
 H    1.126015224191   -2.889123650792    0.000000000000
 H   -0.442684775809   -2.893738650792    0.888337000000
 H   -0.442684775809   -2.893738650792   -0.888337000000
 C    0.048749224191   -0.956951650792    0.000000000000
 O   -1.118446775809   -0.450728650792    0.000000000000
 O    1.172820224191   -0.361533650792    0.000000000000
LI   -0.396721695320    9.033121204791    0.000000000000
