8

 C    0.056434806911   -1.748752649003    0.000000000000
 H    1.091934806911   -2.124840649003    0.000000000000
 H   -0.476765193089   -2.129455649003    0.888337000000
 H   -0.476765193089   -2.129455649003   -0.888337000000
 C    0.014668806911   -0.192668649003    0.000000000000
 O   -1.152527193089    0.313554350997    0.000000000000
 O    1.138739806911    0.402749350997    0.000000000000
LI   -0.110063050552    2.604551750560    0.000000000000
