8

 C    0.058801502556   -1.801827857461    0.000000000000
 H    1.094301502556   -2.177915857461    0.000000000000
 H   -0.474398497444   -2.182530857461    0.888337000000
 H   -0.474398497444   -2.182530857461   -0.888337000000
 C    0.017035502556   -0.245743857461    0.000000000000
 O   -1.150160497444    0.260479142539    0.000000000000
 O    1.141106502556    0.349674142539    0.000000000000
LI   -0.129969900883    3.050980184882    0.000000000000
