8

 C    0.060221519942   -1.833672982535    0.000000000000
 H    1.095721519942   -2.209760982535    0.000000000000
 H   -0.472978480058   -2.214375982535    0.888337000000
 H   -0.472978480058   -2.214375982535   -0.888337000000
 C    0.018455519942   -0.277588982535    0.000000000000
 O   -1.148740480058    0.228634017465    0.000000000000
 O    1.142526519942    0.317829017465    0.000000000000
LI   -0.141914011082    3.318837245475    0.000000000000
