8

 C    0.060694859071   -1.844288024227    0.000000000000
 H    1.096194859071   -2.220376024227    0.000000000000
 H   -0.472505140929   -2.224991024227    0.888337000000
 H   -0.472505140929   -2.224991024227   -0.888337000000
 C    0.018928859071   -0.288204024227    0.000000000000
 O   -1.148267140929    0.218018975773    0.000000000000
 O    1.142999859071    0.307213975773    0.000000000000
LI   -0.145895381148    3.408122932339    0.000000000000
