8

 C    0.061168198200   -1.854903065918    0.000000000000
 H    1.096668198200   -2.230991065918    0.000000000000
 H   -0.472031801800   -2.235606065918    0.888337000000
 H   -0.472031801800   -2.235606065918   -0.888337000000
 C    0.019402198200   -0.298819065918    0.000000000000
 O   -1.147793801800    0.207403934082    0.000000000000
 O    1.143473198200    0.296598934082    0.000000000000
LI   -0.149876751214    3.497408619204    0.000000000000
