8

 C    0.061641537329   -1.865518107610    0.000000000000
 H    1.097141537329   -2.241606107610    0.000000000000
 H   -0.471558462671   -2.246221107610    0.888337000000
 H   -0.471558462671   -2.246221107610   -0.888337000000
 C    0.019875537329   -0.309434107610    0.000000000000
 O   -1.147320462671    0.196788892390    0.000000000000
 O    1.143946537329    0.285983892390    0.000000000000
LI   -0.153858121280    3.586694306068    0.000000000000
