8

 C    0.063061554716   -1.897363232684    0.000000000000
 H    1.098561554716   -2.273451232684    0.000000000000
 H   -0.470138445284   -2.278066232684    0.888337000000
 H   -0.470138445284   -2.278066232684   -0.888337000000
 C    0.021295554716   -0.341279232684    0.000000000000
 O   -1.145900445284    0.164943767316    0.000000000000
 O    1.145366554716    0.254138767316    0.000000000000
LI   -0.165802231479    3.854551366661    0.000000000000
