8

 C    0.069688302520   -2.045973816366    0.000000000000
 H    1.105188302520   -2.422061816366    0.000000000000
 H   -0.463511697480   -2.426676816366    0.888337000000
 H   -0.463511697480   -2.426676816366   -0.888337000000
 C    0.027922302520   -0.489889816366    0.000000000000
 O   -1.139273697480    0.016333183634    0.000000000000
 O    1.151993302520    0.105528183634    0.000000000000
LI   -0.221541412406    5.104550982761    0.000000000000
