8

 C    0.070161641649   -2.056588858057    0.000000000000
 H    1.105661641649   -2.432676858057    0.000000000000
 H   -0.463038358351   -2.437291858057    0.888337000000
 H   -0.463038358351   -2.437291858057   -0.888337000000
 C    0.028395641649   -0.500504858057    0.000000000000
 O   -1.138800358351    0.005718141943    0.000000000000
 O    1.152466641649    0.094913141943    0.000000000000
LI   -0.225522782473    5.193836669626    0.000000000000
