8

 C    0.072054998164   -2.099049024823    0.000000000000
 H    1.107554998164   -2.475137024823    0.000000000000
 H   -0.461145001836   -2.479752024823    0.888337000000
 H   -0.461145001836   -2.479752024823   -0.888337000000
 C    0.030288998164   -0.542965024823    0.000000000000
 O   -1.136907001836   -0.036742024823    0.000000000000
 O    1.154359998164    0.052452975177    0.000000000000
LI   -0.241448262737    5.550979417083    0.000000000000
