8

 C    0.077261728582   -2.215814483430    0.000000000000
 H    1.112761728582   -2.591902483430    0.000000000000
 H   -0.455938271418   -2.596517483430    0.888337000000
 H   -0.455938271418   -2.596517483430   -0.888337000000
 C    0.035495728582   -0.659730483430    0.000000000000
 O   -1.131700271418   -0.153507483430    0.000000000000
 O    1.159566728582   -0.064312483430    0.000000000000
LI   -0.285243333466    6.533121972590    0.000000000000
