8

 C    0.078681745969   -2.247659608504    0.000000000000
 H    1.114181745969   -2.623747608504    0.000000000000
 H   -0.454518254031   -2.628362608504    0.888337000000
 H   -0.454518254031   -2.628362608504   -0.888337000000
 C    0.036915745969   -0.691575608504    0.000000000000
 O   -1.130280254031   -0.185352608504    0.000000000000
 O    1.160986745969   -0.096157608504    0.000000000000
LI   -0.297187443665    6.800979033183    0.000000000000
