8

 C    0.079155085098   -2.258274650196    0.000000000000
 H    1.114655085098   -2.634362650196    0.000000000000
 H   -0.454044914902   -2.638977650196    0.888337000000
 H   -0.454044914902   -2.638977650196   -0.888337000000
 C    0.037389085098   -0.702190650196    0.000000000000
 O   -1.129806914902   -0.195967650196    0.000000000000
 O    1.161460085098   -0.106772650196    0.000000000000
LI   -0.301168813731    6.890264720048    0.000000000000
