8

 C    0.079628424227   -2.268889691887    0.000000000000
 H    1.115128424227   -2.644977691887    0.000000000000
 H   -0.453571575773   -2.649592691887    0.888337000000
 H   -0.453571575773   -2.649592691887   -0.888337000000
 C    0.037862424227   -0.712805691887    0.000000000000
 O   -1.129333575773   -0.206582691887    0.000000000000
 O    1.161933424227   -0.117387691887    0.000000000000
LI   -0.305150183797    6.979550406912    0.000000000000
