8

 C    0.080575102484   -2.290119775270    0.000000000000
 H    1.116075102484   -2.666207775270    0.000000000000
 H   -0.452624897516   -2.670822775270    0.888337000000
 H   -0.452624897516   -2.670822775270   -0.888337000000
 C    0.038809102484   -0.734035775270    0.000000000000
 O   -1.128386897516   -0.227812775270    0.000000000000
 O    1.162880102484   -0.138617775270    0.000000000000
LI   -0.313112923930    7.158121780641    0.000000000000
