8

 C    0.081048441613   -2.300734816962    0.000000000000
 H    1.116548441613   -2.676822816962    0.000000000000
 H   -0.452151558387   -2.681437816962    0.888337000000
 H   -0.452151558387   -2.681437816962   -0.888337000000
 C    0.039282441613   -0.744650816962    0.000000000000
 O   -1.127913558387   -0.238427816962    0.000000000000
 O    1.163353441613   -0.149232816962    0.000000000000
LI   -0.317094293996    7.247407467505    0.000000000000
