8

 C    0.081995119871   -2.321964900345    0.000000000000
 H    1.117495119871   -2.698052900345    0.000000000000
 H   -0.451204880129   -2.702667900345    0.888337000000
 H   -0.451204880129   -2.702667900345   -0.888337000000
 C    0.040229119871   -0.765880900345    0.000000000000
 O   -1.126966880129   -0.259657900345    0.000000000000
 O    1.164300119871   -0.170462900345    0.000000000000
LI   -0.325057034128    7.425978841234    0.000000000000
