8

 C    0.082468459000   -2.332579942037    0.000000000000
 H    1.117968459000   -2.708667942037    0.000000000000
 H   -0.450731541000   -2.713282942037    0.888337000000
 H   -0.450731541000   -2.713282942037   -0.888337000000
 C    0.040702459000   -0.776495942037    0.000000000000
 O   -1.126493541000   -0.270272942037    0.000000000000
 O    1.164773459000   -0.181077942037    0.000000000000
LI   -0.329038404194    7.515264528098    0.000000000000
