8

 C    0.082941798129   -2.343194983728    0.000000000000
 H    1.118441798129   -2.719282983728    0.000000000000
 H   -0.450258201871   -2.723897983728    0.888337000000
 H   -0.450258201871   -2.723897983728   -0.888337000000
 C    0.041175798129   -0.787110983728    0.000000000000
 O   -1.126020201871   -0.280887983728    0.000000000000
 O    1.165246798129   -0.191692983728    0.000000000000
LI   -0.333019774261    7.604550214962    0.000000000000
