8

 C    0.084361815515   -2.375040108803    0.000000000000
 H    1.119861815515   -2.751128108803    0.000000000000
 H   -0.448838184485   -2.755743108803    0.888337000000
 H   -0.448838184485   -2.755743108803   -0.888337000000
 C    0.042595815515   -0.818956108803    0.000000000000
 O   -1.124600184485   -0.312733108803    0.000000000000
 O    1.166666815515   -0.223538108803    0.000000000000
LI   -0.344963884459    7.872407275555    0.000000000000
