8

 C    0.085308493773   -2.396270192186    0.000000000000
 H    1.120808493773   -2.772358192186    0.000000000000
 H   -0.447891506227   -2.776973192186    0.888337000000
 H   -0.447891506227   -2.776973192186   -0.888337000000
 C    0.043542493773   -0.840186192186    0.000000000000
 O   -1.123653506227   -0.333963192186    0.000000000000
 O    1.167613493773   -0.244768192186    0.000000000000
LI   -0.352926624592    8.050978649284    0.000000000000
