8

 C    0.085781832902   -2.406885233877    0.000000000000
 H    1.121281832902   -2.782973233877    0.000000000000
 H   -0.447418167098   -2.787588233877    0.888337000000
 H   -0.447418167098   -2.787588233877   -0.888337000000
 C    0.044015832902   -0.850801233877    0.000000000000
 O   -1.123180167098   -0.344578233877    0.000000000000
 O    1.168086832902   -0.255383233877    0.000000000000
LI   -0.356907994658    8.140264336148    0.000000000000
