8

 C    0.086255172031   -2.417500275569    0.000000000000
 H    1.121755172031   -2.793588275569    0.000000000000
 H   -0.446944827969   -2.798203275569    0.888337000000
 H   -0.446944827969   -2.798203275569   -0.888337000000
 C    0.044489172031   -0.861416275569    0.000000000000
 O   -1.122706827969   -0.355193275569    0.000000000000
 O    1.168560172031   -0.265998275569    0.000000000000
LI   -0.360889364724    8.229550023012    0.000000000000
