8

 C    0.087675189418   -2.449345400643    0.000000000000
 H    1.123175189418   -2.825433400643    0.000000000000
 H   -0.445524810582   -2.830048400643    0.888337000000
 H   -0.445524810582   -2.830048400643   -0.888337000000
 C    0.045909189418   -0.893261400643    0.000000000000
 O   -1.121286810582   -0.387038400643    0.000000000000
 O    1.169980189418   -0.297843400643    0.000000000000
LI   -0.372833474923    8.497407083605    0.000000000000
