8

 C    0.088621867675   -2.470575484026    0.000000000000
 H    1.124121867675   -2.846663484026    0.000000000000
 H   -0.444578132325   -2.851278484026    0.888337000000
 H   -0.444578132325   -2.851278484026   -0.888337000000
 C    0.046855867675   -0.914491484026    0.000000000000
 O   -1.120340132325   -0.408268484026    0.000000000000
 O    1.170926867675   -0.319073484026    0.000000000000
LI   -0.380796215055    8.675978457334    0.000000000000
