10

 C    0.972680503678   -1.725832182909    1.946585901505
 C   -0.126618496322   -0.676972182909    1.946585901505
 N   -1.406226496322   -1.180761182909    1.946585901505
 H   -2.180899496322   -0.530177182909    1.946585901505
 H   -1.592897496322   -2.172812182909    1.946585901505
 O    0.094973503678    0.536029817091    1.946585901505
 H    1.943345503678   -1.216687182909    1.946585901505
 H    0.893042503678   -2.366837182909    2.838832901505
 H    0.893042503678   -2.366837182909    1.054338901505
RB    0.094973503678    0.536029817091   -1.353414098495
