10

 C    0.972680503678   -1.725832182909    4.306083963935
 C   -0.126618496322   -0.676972182909    4.306083963935
 N   -1.406226496322   -1.180761182909    4.306083963935
 H   -2.180899496322   -0.530177182909    4.306083963935
 H   -1.592897496322   -2.172812182909    4.306083963935
 O    0.094973503678    0.536029817091    4.306083963935
 H    1.943345503678   -1.216687182909    4.306083963935
 H    0.893042503678   -2.366837182909    5.198330963935
 H    0.893042503678   -2.366837182909    3.413836963935
RB    0.094973503678    0.536029817091   -2.993916036065
