10

 C    0.972680503678   -1.725832182909    5.131908285786
 C   -0.126618496322   -0.676972182909    5.131908285786
 N   -1.406226496322   -1.180761182909    5.131908285786
 H   -2.180899496322   -0.530177182909    5.131908285786
 H   -1.592897496322   -2.172812182909    5.131908285786
 O    0.094973503678    0.536029817091    5.131908285786
 H    1.943345503678   -1.216687182909    5.131908285786
 H    0.893042503678   -2.366837182909    6.024155285786
 H    0.893042503678   -2.366837182909    4.239661285786
RB    0.094973503678    0.536029817091   -3.568091714214
