17

 N   -1.975229189499   -1.006370383789    0.388122092675
 C   -0.765041122655   -0.351164180113    0.392083716643
 N    0.468371291648   -0.949841874575    0.404122001548
 C    1.438794491704   -0.059665732964    0.392249544575
 N    1.235717654291    1.301972400550    0.385414384233
 H    2.039544779542    1.921932940305    0.303426361811
 N    2.764249245941   -0.478340454644    0.313902241340
 H    3.418785451273    0.053462769756    0.881543018070
 H    2.843054333332   -1.479040598579    0.475485579329
 C   -0.023556088026    1.988006104081    0.398368170910
 O   -0.051136457131    3.216179188858    0.394280042482
 C   -1.096341214002    1.014312714807    0.404569368850
 N   -2.467414515771    1.200643760120    0.404494184134
 C   -2.960938010282   -0.037959253925    0.394164084469
 H   -4.018435923550   -0.292105875757    0.391217440043
 H   -2.100326186030   -2.012953469021    0.379462541644
RB    0.460989025937   -0.956464440247   -0.695833290169
