17

 N   -1.974021669336   -1.005287128065    0.568042220979
 C   -0.763833602492   -0.350080924389    0.572003844947
 N    0.469578811811   -0.948758618851    0.584042129852
 C    1.440002011867   -0.058582477240    0.572169672879
 N    1.236925174454    1.303055656274    0.565334512537
 H    2.040752299705    1.923016196029    0.483346490115
 N    2.765456766104   -0.477257198920    0.493822369644
 H    3.419992971436    0.054546025480    1.061463146374
 H    2.844261853495   -1.477957342855    0.655405707633
 C   -0.022348567863    1.989089359805    0.578288299214
 O   -0.049928936968    3.217262444582    0.574200170786
 C   -1.095133693839    1.015395970531    0.584489497154
 N   -2.466206995608    1.201727015844    0.584414312438
 C   -2.959730490119   -0.036875998201    0.574084212773
 H   -4.017228403387   -0.291022620033    0.571137568347
 H   -2.099118665867   -2.011870213297    0.559382669948
RB    0.458840970777   -0.958391441648   -1.015892839919
