17

 N   -1.973780165303   -1.005070476920    0.604026246640
 C   -0.763592098459   -0.349864273244    0.607987870608
 N    0.469820315844   -0.948541967706    0.620026155513
 C    1.440243515900   -0.058365826095    0.608153698540
 N    1.237166678487    1.303272307419    0.601318538198
 H    2.040993803738    1.923232847174    0.519330515776
 N    2.765698270137   -0.477040547775    0.529806395305
 H    3.420234475469    0.054762676625    1.097447172035
 H    2.844503357528   -1.477740691710    0.691389733294
 C   -0.022107063830    1.989306010950    0.614272324875
 O   -0.049687432935    3.217479095727    0.610184196447
 C   -1.094892189806    1.015612621676    0.620473522815
 N   -2.465965491575    1.201943666989    0.620398338099
 C   -2.959488986086   -0.036659347056    0.610068238434
 H   -4.016986899354   -0.290805968888    0.607121594008
 H   -2.098877161834   -2.011653562152    0.595366695609
RB    0.458411359745   -0.958776841928   -1.079904749868
