17

 N   -1.973055653205   -1.004420523486    0.711978323622
 C   -0.762867586361   -0.349214319810    0.715939947590
 N    0.470544827942   -0.947892014272    0.727978232495
 C    1.440968027998   -0.057715872661    0.716105775522
 N    1.237891190585    1.303922260853    0.709270615180
 H    2.041718315836    1.923882800608    0.627282592758
 N    2.766422782235   -0.476390594341    0.637758472287
 H    3.420958987567    0.055412630059    1.205399249017
 H    2.845227869626   -1.477090738276    0.799341810276
 C   -0.021382551732    1.989955964384    0.722224401857
 O   -0.048962920837    3.218129049161    0.718136273429
 C   -1.094167677708    1.016262575110    0.728425599797
 N   -2.465240979477    1.202593620423    0.728350415081
 C   -2.958764473988   -0.036009393622    0.718020315416
 H   -4.016262387256   -0.290156015454    0.715073670990
 H   -2.098152649736   -2.011003608718    0.703318772591
RB    0.457122526649   -0.959933042768   -1.271940479718
