17

 N   -1.972572645139   -1.003987221197    0.783946374944
 C   -0.762384578295   -0.348781017521    0.787907998912
 N    0.471027836008   -0.947458711983    0.799946283817
 C    1.441451036064   -0.057282570372    0.788073826844
 N    1.238374198651    1.304355563142    0.781238666502
 H    2.042201323902    1.924316102897    0.699250644080
 N    2.766905790301   -0.475957292052    0.709726523609
 H    3.421441995633    0.055845932348    1.277367300339
 H    2.845710877692   -1.476657435987    0.871309861598
 C   -0.020899543666    1.990389266673    0.794192453179
 O   -0.048479912771    3.218562351450    0.790104324751
 C   -1.093684669642    1.016695877399    0.800393651119
 N   -2.464757971411    1.203026922712    0.800318466403
 C   -2.958281465922   -0.035576091333    0.789988366738
 H   -4.015779379190   -0.289722713165    0.787041722312
 H   -2.097669641670   -2.010570306429    0.775286823913
RB    0.456263304585   -0.960703843328   -1.399964299618
