17

 N   -1.972331141106   -1.003770570052    0.819930400604
 C   -0.762143074262   -0.348564366376    0.823892024572
 N    0.471269340041   -0.947242060838    0.835930309477
 C    1.441692540097   -0.057065919227    0.824057852504
 N    1.238615702684    1.304572214287    0.817222692162
 H    2.042442827935    1.924532754042    0.735234669740
 N    2.767147294334   -0.475740640907    0.745710549269
 H    3.421683499666    0.056062583493    1.313351325999
 H    2.845952381725   -1.476440784842    0.907293887258
 C   -0.020658039633    1.990605917818    0.830176478839
 O   -0.048238408738    3.218779002595    0.826088350411
 C   -1.093443165609    1.016912528544    0.836377676779
 N   -2.464516467378    1.203243573857    0.836302492063
 C   -2.958039961889   -0.035359440188    0.825972392398
 H   -4.015537875157   -0.289506062020    0.823025747972
 H   -2.097428137637   -2.010353655284    0.811270849573
RB    0.455833693554   -0.961089243608   -1.463976209568
