17

 N   -1.972089637074   -1.003553918907    0.855914426265
 C   -0.761901570230   -0.348347715231    0.859876050233
 N    0.471510844073   -0.947025409693    0.871914335138
 C    1.441934044129   -0.056849268082    0.860041878165
 N    1.238857206716    1.304788865432    0.853206717823
 H    2.042684331967    1.924749405187    0.771218695401
 N    2.767388798366   -0.475523989762    0.781694574930
 H    3.421925003698    0.056279234638    1.349335351660
 H    2.846193885757   -1.476224133697    0.943277912919
 C   -0.020416535601    1.990822568963    0.866160504500
 O   -0.047996904706    3.218995653740    0.862072376072
 C   -1.093201661577    1.017129179689    0.872361702440
 N   -2.464274963346    1.203460225002    0.872286517724
 C   -2.957798457857   -0.035142789043    0.861956418059
 H   -4.015296371125   -0.289289410875    0.859009773633
 H   -2.097186633605   -2.010137004139    0.847254875234
RB    0.455404082522   -0.961474643888   -1.527988119518
