17

 N   -1.971848133041   -1.003337267763    0.891898451926
 C   -0.761660066197   -0.348131064087    0.895860075894
 N    0.471752348106   -0.946808758549    0.907898360799
 C    1.442175548162   -0.056632616938    0.896025903826
 N    1.239098710749    1.305005516576    0.889190743484
 H    2.042925836000    1.924966056331    0.807202721062
 N    2.767630302399   -0.475307338618    0.817678600591
 H    3.422166507731    0.056495885782    1.385319377321
 H    2.846435389790   -1.476007482553    0.979261938580
 C   -0.020175031568    1.991039220107    0.902144530161
 O   -0.047755400673    3.219212304884    0.898056401733
 C   -1.092960157544    1.017345830833    0.908345728101
 N   -2.464033459313    1.203676876146    0.908270543385
 C   -2.957556953824   -0.034926137899    0.897940443720
 H   -4.015054867092   -0.289072759731    0.894993799294
 H   -2.096945129572   -2.009920352995    0.883238900895
RB    0.454974471490   -0.961860044168   -1.592000029468
