17

 N   -1.971606629008   -1.003120616618    0.927882477587
 C   -0.761418562164   -0.347914412942    0.931844101555
 N    0.471993852139   -0.946592107404    0.943882386460
 C    1.442417052195   -0.056415965793    0.932009929487
 N    1.239340214782    1.305222167721    0.925174769145
 H    2.043167340033    1.925182707476    0.843186746723
 N    2.767871806432   -0.475090687473    0.853662626252
 H    3.422408011764    0.056712536927    1.421303402982
 H    2.846676893823   -1.475790831408    1.015245964241
 C   -0.019933527535    1.991255871252    0.938128555822
 O   -0.047513896640    3.219428956029    0.934040427394
 C   -1.092718653511    1.017562481978    0.944329753762
 N   -2.463791955280    1.203893527291    0.944254569046
 C   -2.957315449791   -0.034709486754    0.933924469381
 H   -4.014813363059   -0.288856108586    0.930977824955
 H   -2.096703625539   -2.009703701850    0.919222926556
RB    0.454544860458   -0.962245444448   -1.656011939418
