17

 N   -1.971365124975   -1.002903965473    0.963866503247
 C   -0.761177058131   -0.347697761797    0.967828127215
 N    0.472235356172   -0.946375456259    0.979866412120
 C    1.442658556228   -0.056199314648    0.967993955147
 N    1.239581718815    1.305438818866    0.961158794805
 H    2.043408844066    1.925399358621    0.879170772383
 N    2.768113310465   -0.474874036328    0.889646651912
 H    3.422649515797    0.056929188072    1.457287428642
 H    2.846918397856   -1.475574180263    1.051229989901
 C   -0.019692023502    1.991472522397    0.974112581482
 O   -0.047272392607    3.219645607174    0.970024453054
 C   -1.092477149478    1.017779133123    0.980313779422
 N   -2.463550451247    1.204110178436    0.980238594706
 C   -2.957073945758   -0.034492835609    0.969908495041
 H   -4.014571859026   -0.288639457441    0.966961850615
 H   -2.096462121506   -2.009487050705    0.955206952216
RB    0.454115249426   -0.962630844728   -1.720023849368
