17

 N   -1.970640612877   -1.002254012039    1.071818580230
 C   -0.760452546033   -0.347047808363    1.075780204198
 N    0.472959868270   -0.945725502825    1.087818489103
 C    1.443383068326   -0.055549361214    1.075946032130
 N    1.240306230913    1.306088772300    1.069110871788
 H    2.044133356164    1.926049312055    0.987122849366
 N    2.768837822563   -0.474224082894    0.997598728895
 H    3.423374027895    0.057579141506    1.565239505625
 H    2.847642909954   -1.474924226829    1.159182066884
 C   -0.018967511404    1.992122475831    1.082064658465
 O   -0.046547880509    3.220295560608    1.077976530037
 C   -1.091752637380    1.018429086557    1.088265856405
 N   -2.462825939149    1.204760131870    1.088190671689
 C   -2.956349433660   -0.033842882175    1.077860572024
 H   -4.013847346928   -0.287989504007    1.074913927598
 H   -2.095737609408   -2.008837097271    1.063159029199
RB    0.452826416330   -0.963787045568   -1.912059579217
