17

 N   -1.969433092713   -1.001170756315    1.251738708533
 C   -0.759245025869   -0.345964552639    1.255700332501
 N    0.474167388434   -0.944642247101    1.267738617406
 C    1.444590588490   -0.054466105490    1.255866160433
 N    1.241513751077    1.307172028024    1.249031000091
 H    2.045340876328    1.927132567779    1.167042977669
 N    2.770045342727   -0.473140827170    1.177518857198
 H    3.424581548059    0.058662397230    1.745159633928
 H    2.848850430118   -1.473840971105    1.339102195187
 C   -0.017759991240    1.993205731555    1.261984786768
 O   -0.045340360345    3.221378816332    1.257896658340
 C   -1.090545117216    1.019512342281    1.268185984708
 N   -2.461618418985    1.205843387594    1.268110799992
 C   -2.955141913496   -0.032759626451    1.257780700327
 H   -4.012639826764   -0.286906248283    1.254834055901
 H   -2.094530089244   -2.007753841547    1.243079157502
RB    0.450678361171   -0.965714046969   -2.232119128967
