17

 N   -1.969191588681   -1.000954105171    1.287722734194
 C   -0.759003521837   -0.345747901495    1.291684358162
 N    0.474408892466   -0.944425595957    1.303722643067
 C    1.444832092522   -0.054249454346    1.291850186094
 N    1.241755255109    1.307388679168    1.285015025752
 H    2.045582380360    1.927349218923    1.203027003330
 N    2.770286846759   -0.472924176026    1.213502882859
 H    3.424823052091    0.058879048374    1.781143659589
 H    2.849091934150   -1.473624319961    1.375086220848
 C   -0.017518487208    1.993422382699    1.297968812429
 O   -0.045098856313    3.221595467476    1.293880684001
 C   -1.090303613184    1.019728993425    1.304170010369
 N   -2.461376914953    1.206060038738    1.304094825653
 C   -2.954900409464   -0.032542975307    1.293764725988
 H   -4.012398322732   -0.286689597139    1.290818081562
 H   -2.094288585212   -2.007537190403    1.279063183163
RB    0.450248750139   -0.966099447249   -2.296131038917
