17

 N   -1.968950084648   -1.000737454026    1.323706759855
 C   -0.758762017804   -0.345531250350    1.327668383823
 N    0.474650396499   -0.944208944812    1.339706668728
 C    1.445073596555   -0.054032803201    1.327834211755
 N    1.241996759142    1.307605330313    1.320999051413
 H    2.045823884393    1.927565870068    1.239011028991
 N    2.770528350792   -0.472707524881    1.249486908520
 H    3.425064556124    0.059095699519    1.817127685250
 H    2.849333438183   -1.473407668816    1.411070246509
 C   -0.017276983175    1.993639033844    1.333952838090
 O   -0.044857352280    3.221812118621    1.329864709662
 C   -1.090062109151    1.019945644570    1.340154036030
 N   -2.461135410920    1.206276689883    1.340078851314
 C   -2.954658905431   -0.032326324162    1.329748751649
 H   -4.012156818699   -0.286472945994    1.326802107223
 H   -2.094047081179   -2.007320539258    1.315047208824
RB    0.449819139107   -0.966484847529   -2.360142948867
