17

 N   -1.968467076582   -1.000304151736    1.395674811176
 C   -0.758279009738   -0.345097948060    1.399636435144
 N    0.475133404565   -0.943775642522    1.411674720049
 C    1.445556604621   -0.053599500911    1.399802263076
 N    1.242479767208    1.308038632603    1.392967102734
 H    2.046306892459    1.927999172358    1.310979080312
 N    2.771011358858   -0.472274222591    1.321454959841
 H    3.425547564190    0.059529001809    1.889095736571
 H    2.849816446249   -1.472974366526    1.483038297830
 C   -0.016793975109    1.994072336134    1.405920889411
 O   -0.044374344214    3.222245420911    1.401832760983
 C   -1.089579101085    1.020378946860    1.412122087351
 N   -2.460652402854    1.206709992173    1.412046902635
 C   -2.954175897365   -0.031893021872    1.401716802970
 H   -4.011673810633   -0.286039643704    1.398770158544
 H   -2.093564073113   -2.006887236968    1.387015260145
RB    0.448959917043   -0.967255648089   -2.488166768767
