17

 N   -1.968225572550   -1.000087500592    1.431658836837
 C   -0.758037505706   -0.344881296916    1.435620460805
 N    0.475374908597   -0.943558991378    1.447658745710
 C    1.445798108653   -0.053382849767    1.435786288737
 N    1.242721271240    1.308255283747    1.428951128395
 H    2.046548396491    1.928215823502    1.346963105973
 N    2.771252862890   -0.472057571447    1.357438985502
 H    3.425789068222    0.059745652953    1.925079762232
 H    2.850057950281   -1.472757715382    1.519022323491
 C   -0.016552471077    1.994288987278    1.441904915072
 O   -0.044132840182    3.222462072055    1.437816786644
 C   -1.089337597053    1.020595598004    1.448106113012
 N   -2.460410898822    1.206926643317    1.448030928296
 C   -2.953934393333   -0.031676370728    1.437700828631
 H   -4.011432306601   -0.285822992560    1.434754184205
 H   -2.093322569081   -2.006670585824    1.422999285806
RB    0.448530306011   -0.967641048369   -2.552178678716
