17

 N   -1.967742564484   -0.999654198302    1.503626888159
 C   -0.757554497640   -0.344447994626    1.507588512127
 N    0.475857916663   -0.943125689088    1.519626797032
 C    1.446281116719   -0.052949547477    1.507754340059
 N    1.243204279306    1.308688586037    1.500919179717
 H    2.047031404557    1.928649125792    1.418931157295
 N    2.771735870956   -0.471624269157    1.429407036824
 H    3.426272076288    0.060178955243    1.997047813554
 H    2.850540958347   -1.472324413092    1.590990374813
 C   -0.016069463011    1.994722289568    1.513872966394
 O   -0.043649832116    3.222895374345    1.509784837966
 C   -1.088854588987    1.021028900294    1.520074164334
 N   -2.459927890756    1.207359945607    1.519998979618
 C   -2.953451385267   -0.031243068438    1.509668879953
 H   -4.010949298535   -0.285389690270    1.506722235527
 H   -2.092839561015   -2.006237283534    1.494967337128
RB    0.447671083947   -0.968411848929   -2.680202498616
