17

 N   -1.967259556419   -0.999220896013    1.575594939480
 C   -0.757071489575   -0.344014692337    1.579556563448
 N    0.476340924728   -0.942692386799    1.591594848353
 C    1.446764124784   -0.052516245188    1.579722391380
 N    1.243687287371    1.309121888326    1.572887231038
 H    2.047514412622    1.929082428081    1.490899208616
 N    2.772218879021   -0.471190966868    1.501375088145
 H    3.426755084353    0.060612257532    2.069015864875
 H    2.851023966412   -1.471891110803    1.662958426134
 C   -0.015586454946    1.995155591857    1.585841017715
 O   -0.043166824051    3.223328676634    1.581752889287
 C   -1.088371580922    1.021462202583    1.592042215655
 N   -2.459444882691    1.207793247896    1.591967030939
 C   -2.952968377202   -0.030809766149    1.581636931274
 H   -4.010466290470   -0.284956387981    1.578690286848
 H   -2.092356552950   -2.005803981245    1.566935388449
RB    0.446811861883   -0.969182649489   -2.808226318516
