17

 N   -1.967018052386   -0.999004244868    1.611578965141
 C   -0.756829985542   -0.343798041192    1.615540589109
 N    0.476582428761   -0.942475735654    1.627578874014
 C    1.447005628817   -0.052299594043    1.615706417041
 N    1.243928791404    1.309338539471    1.608871256699
 H    2.047755916655    1.929299079226    1.526883234277
 N    2.772460383054   -0.470974315723    1.537359113806
 H    3.426996588386    0.060828908677    2.104999890536
 H    2.851265470445   -1.471674459658    1.698942451795
 C   -0.015344950913    1.995372243002    1.621825043376
 O   -0.042925320018    3.223545327779    1.617736914948
 C   -1.088130076889    1.021678853728    1.628026241316
 N   -2.459203378658    1.208009899041    1.627951056600
 C   -2.952726873169   -0.030593115004    1.617620956935
 H   -4.010224786437   -0.284739736836    1.614674312509
 H   -2.092115048917   -2.005587330100    1.602919414110
RB    0.446382250851   -0.969568049769   -2.872238228466
