17

 N   -1.966776548353   -0.998787593723    1.647562990802
 C   -0.756588481509   -0.343581390047    1.651524614770
 N    0.476823932794   -0.942259084509    1.663562899675
 C    1.447247132850   -0.052082942898    1.651690442702
 N    1.244170295437    1.309555190616    1.644855282360
 H    2.047997420688    1.929515730371    1.562867259938
 N    2.772701887087   -0.470757664578    1.573343139467
 H    3.427238092419    0.061045559822    2.140983916197
 H    2.851506974478   -1.471457808513    1.734926477456
 C   -0.015103446880    1.995588894147    1.657809069037
 O   -0.042683815985    3.223761978924    1.653720940609
 C   -1.087888572856    1.021895504873    1.664010266977
 N   -2.458961874625    1.208226550186    1.663935082261
 C   -2.952485369136   -0.030376463859    1.653604982596
 H   -4.009983282404   -0.284523085691    1.650658338170
 H   -2.091873544884   -2.005370678955    1.638903439771
RB    0.445952639820   -0.969953450049   -2.936250138416
