17

 N   -1.966293540288   -0.998354291434    1.719531042123
 C   -0.756105473444   -0.343148087758    1.723492666091
 N    0.477306940859   -0.941825782220    1.735530950996
 C    1.447730140915   -0.051649640609    1.723658494023
 N    1.244653303502    1.309988492905    1.716823333681
 H    2.048480428753    1.929949032660    1.634835311259
 N    2.773184895152   -0.470324362289    1.645311190788
 H    3.427721100484    0.061478862111    2.212951967518
 H    2.851989982543   -1.471024506224    1.806894528777
 C   -0.014620438815    1.996022196436    1.729777120358
 O   -0.042200807920    3.224195281213    1.725688991930
 C   -1.087405564791    1.022328807162    1.735978318298
 N   -2.458478866560    1.208659852475    1.735903133582
 C   -2.952002361071   -0.029943161570    1.725573033917
 H   -4.009500274339   -0.284089783402    1.722626389491
 H   -2.091390536819   -2.004937376666    1.710871491092
RB    0.445093417756   -0.970724250609   -3.064273958316
