17

 N   -1.965569028190   -0.997704338000    1.827483119105
 C   -0.755380961346   -0.342498134324    1.831444743073
 N    0.478031452957   -0.941175828786    1.843483027978
 C    1.448454653013   -0.050999687175    1.831610571005
 N    1.245377815600    1.310638446339    1.824775410663
 H    2.049204940851    1.930598986094    1.742787388241
 N    2.773909407250   -0.469674408855    1.753263267770
 H    3.428445612582    0.062128815545    2.320904044500
 H    2.852714494641   -1.470374552790    1.914846605759
 C   -0.013895926717    1.996672149870    1.837729197340
 O   -0.041476295822    3.224845234647    1.833641068912
 C   -1.086681052693    1.022978760596    1.843930395280
 N   -2.457754354462    1.209309805909    1.843855210564
 C   -2.951277848973   -0.029293208136    1.833525110899
 H   -4.008775762241   -0.283439829968    1.830578466473
 H   -2.090666024721   -2.004287423232    1.818823568074
RB    0.443804584660   -0.971880451449   -3.256309688165
