17

 N   -1.965327524157   -0.997487686855    1.863467144766
 C   -0.755139457313   -0.342281483179    1.867428768734
 N    0.478272956990   -0.940959177641    1.879467053639
 C    1.448696157046   -0.050783036030    1.867594596666
 N    1.245619319633    1.310855097484    1.860759436324
 H    2.049446444884    1.930815637239    1.778771413902
 N    2.774150911283   -0.469457757710    1.789247293431
 H    3.428687116615    0.062345466690    2.356888070161
 H    2.852955998674   -1.470157901645    1.950830631420
 C   -0.013654422684    1.996888801015    1.873713223001
 O   -0.041234791789    3.225061885792    1.869625094573
 C   -1.086439548660    1.023195411741    1.879914420941
 N   -2.457512850429    1.209526457054    1.879839236225
 C   -2.951036344940   -0.029076556991    1.869509136560
 H   -4.008534258208   -0.283223178823    1.866562492134
 H   -2.090424520688   -2.004070772087    1.854807593735
RB    0.443374973628   -0.972265851730   -3.320321598115
