17

 N   -1.963636995928   -0.995971128842    2.115355324391
 C   -0.753448929084   -0.340764925166    2.119316948359
 N    0.479963485219   -0.939442619628    2.131355233264
 C    1.450386685275   -0.049266478017    2.119482776291
 N    1.247309847862    1.312371655497    2.112647615949
 H    2.051136973113    1.932332195252    2.030659593527
 N    2.775841439512   -0.467941199697    2.041135473056
 H    3.430377644844    0.063862024703    2.608776249786
 H    2.854646526903   -1.468641343632    2.202718811045
 C   -0.011963894455    1.998405359028    2.125601402626
 O   -0.039544263560    3.226578443805    2.121513274198
 C   -1.084749020431    1.024711969754    2.131802600566
 N   -2.455822322200    1.211043015067    2.131727415850
 C   -2.949345816711   -0.027559998978    2.121397316185
 H   -4.006843729979   -0.281706620810    2.118450671759
 H   -2.088733992459   -2.002554214074    2.106695773360
RB    0.440367696405   -0.974963653690   -3.768404967765
