17

 N   -1.963395491895   -0.995754477697    2.151339350052
 C   -0.753207425051   -0.340548274021    2.155300974020
 N    0.480204989252   -0.939225968483    2.167339258925
 C    1.450628189308   -0.049049826872    2.155466801952
 N    1.247551351895    1.312588306642    2.148631641610
 H    2.051378477146    1.932548846397    2.066643619188
 N    2.776082943545   -0.467724548552    2.077119498717
 H    3.430619148877    0.064078675848    2.644760275447
 H    2.854888030936   -1.468424692487    2.238702836706
 C   -0.011722390422    1.998622010173    2.161585428287
 O   -0.039302759527    3.226795094950    2.157497299859
 C   -1.084507516398    1.024928620899    2.167786626227
 N   -2.455580818167    1.211259666212    2.167711441511
 C   -2.949104312678   -0.027343347833    2.157381341846
 H   -4.006602225946   -0.281489969665    2.154434697420
 H   -2.088492488426   -2.002337562929    2.142679799021
RB    0.439938085373   -0.975349053970   -3.832416877715
