17

 N   -1.962912483829   -0.995321175408    2.223307401374
 C   -0.752724416985   -0.340114971732    2.227269025342
 N    0.480687997318   -0.938792666194    2.239307310247
 C    1.451111197374   -0.048616524583    2.227434853274
 N    1.248034359961    1.313021608931    2.220599692932
 H    2.051861485212    1.932982148686    2.138611670510
 N    2.776565951611   -0.467291246263    2.149087550039
 H    3.431102156943    0.064511978137    2.716728326769
 H    2.855371039002   -1.467991390198    2.310670888028
 C   -0.011239382356    1.999055312462    2.233553479609
 O   -0.038819751461    3.227228397239    2.229465351181
 C   -1.084024508332    1.025361923188    2.239754677549
 N   -2.455097810101    1.211692968501    2.239679492833
 C   -2.948621304612   -0.026910045544    2.229349393168
 H   -4.006119217880   -0.281056667376    2.226402748742
 H   -2.088009480360   -2.001904260640    2.214647850343
RB    0.439078863309   -0.976119854530   -3.960440697614
