17

 N   -1.962670979797   -0.995104524263    2.259291427034
 C   -0.752482912953   -0.339898320587    2.263253051002
 N    0.480929501350   -0.938576015049    2.275291335907
 C    1.451352701406   -0.048399873438    2.263418878934
 N    1.248275863993    1.313238260076    2.256583718592
 H    2.052102989244    1.933198799831    2.174595696170
 N    2.776807455643   -0.467074595118    2.185071575699
 H    3.431343660975    0.064728629282    2.752712352429
 H    2.855612543034   -1.467774739053    2.346654913688
 C   -0.010997878324    1.999271963607    2.269537505269
 O   -0.038578247429    3.227445048384    2.265449376841
 C   -1.083783004300    1.025578574333    2.275738703209
 N   -2.454856306069    1.211909619646    2.275663518493
 C   -2.948379800580   -0.026693394399    2.265333418828
 H   -4.005877713848   -0.280840016231    2.262386774402
 H   -2.087767976328   -2.001687609495    2.250631876003
RB    0.438649252277   -0.976505254810   -4.024452607564
