17

 N   -1.961704963666   -0.994237919684    2.403227529677
 C   -0.751516896822   -0.339031716008    2.407189153645
 N    0.481895517481   -0.937709410470    2.419227438550
 C    1.452318717537   -0.047533268859    2.407354981577
 N    1.249241880124    1.314104864655    2.400519821235
 H    2.053069005375    1.934065404410    2.318531798813
 N    2.777773471774   -0.466207990539    2.329007678342
 H    3.432309677106    0.065595233861    2.896648455072
 H    2.856578559165   -1.466908134474    2.490591016331
 C   -0.010031862193    2.000138568186    2.413473607912
 O   -0.037612231298    3.228311652963    2.409385479484
 C   -1.082816988169    1.026445178912    2.419674805852
 N   -2.453890289938    1.212776224225    2.419599621136
 C   -2.947413784449   -0.025826789820    2.409269521471
 H   -4.004911697717   -0.279973411652    2.406322877045
 H   -2.086801960197   -2.000821004916    2.394567978646
RB    0.436930808149   -0.978046855930   -4.280500247364
