17

 N   -1.961221955600   -0.993804617395    2.475195580999
 C   -0.751033888756   -0.338598413719    2.479157204967
 N    0.482378525547   -0.937276108181    2.491195489872
 C    1.452801725603   -0.047099966570    2.479323032899
 N    1.249724888190    1.314538166944    2.472487872557
 H    2.053552013441    1.934498706699    2.390499850135
 N    2.778256479840   -0.465774688250    2.400975729664
 H    3.432792685172    0.066028536150    2.968616506394
 H    2.857061567231   -1.466474832185    2.562559067653
 C   -0.009548854127    2.000571870475    2.485441659234
 O   -0.037129223232    3.228744955252    2.481353530806
 C   -1.082333980103    1.026878481201    2.491642857174
 N   -2.453407281872    1.213209526514    2.491567672458
 C   -2.946930776383   -0.025393487531    2.481237572793
 H   -4.004428689651   -0.279540109363    2.478290928367
 H   -2.086318952131   -2.000387702627    2.466536029968
RB    0.436071586086   -0.978817656490   -4.408524067264
