17

 N   -1.960980451567   -0.993587966250    2.511179606660
 C   -0.750792384723   -0.338381762574    2.515141230628
 N    0.482620029580   -0.937059457036    2.527179515533
 C    1.453043229636   -0.046883315425    2.515307058560
 N    1.249966392223    1.314754818089    2.508471898218
 H    2.053793517474    1.934715357844    2.426483875796
 N    2.778497983873   -0.465558037105    2.436959755325
 H    3.433034189205    0.066245187295    3.004600532055
 H    2.857303071264   -1.466258181040    2.598543093314
 C   -0.009307350094    2.000788521620    2.521425684895
 O   -0.036887719199    3.228961606397    2.517337556467
 C   -1.082092476070    1.027095132346    2.527626882835
 N   -2.453165777839    1.213426177659    2.527551698119
 C   -2.946689272350   -0.025176836386    2.517221598454
 H   -4.004187185618   -0.279323458218    2.514274954028
 H   -2.086077448098   -2.000171051482    2.502520055629
RB    0.435641975054   -0.979203056770   -4.472535977214
