17

 N   -1.960738947535   -0.993371315105    2.547163632320
 C   -0.750550880691   -0.338165111429    2.551125256288
 N    0.482861533612   -0.936842805891    2.563163541193
 C    1.453284733668   -0.046666664280    2.551291084220
 N    1.250207896255    1.314971469234    2.544455923878
 H    2.054035021506    1.934932008989    2.462467901456
 N    2.778739487905   -0.465341385960    2.472943780985
 H    3.433275693237    0.066461838440    3.040584557715
 H    2.857544575296   -1.466041529895    2.634527118974
 C   -0.009065846062    2.001005172765    2.557409710555
 O   -0.036646215167    3.229178257542    2.553321582127
 C   -1.081850972038    1.027311783491    2.563610908495
 N   -2.452924273807    1.213642828804    2.563535723779
 C   -2.946447768318   -0.024960185241    2.553205624114
 H   -4.003945681586   -0.279106807073    2.550258979688
 H   -2.085835944066   -1.999954400337    2.538504081289
RB    0.435212364022   -0.979588457050   -4.536547887164
