17

 N   -1.960497443502   -0.993154663960    2.583147657981
 C   -0.750309376658   -0.337948460284    2.587109281949
 N    0.483103037645   -0.936626154746    2.599147566854
 C    1.453526237701   -0.046450013135    2.587275109881
 N    1.250449400288    1.315188120379    2.580439949539
 H    2.054276525539    1.935148660134    2.498451927117
 N    2.778980991938   -0.465124734815    2.508927806646
 H    3.433517197270    0.066678489585    3.076568583376
 H    2.857786079329   -1.465824878750    2.670511144635
 C   -0.008824342029    2.001221823910    2.593393736216
 O   -0.036404711134    3.229394908687    2.589305607788
 C   -1.081609468005    1.027528434636    2.599594934156
 N   -2.452682769774    1.213859479949    2.599519749440
 C   -2.946206264285   -0.024743534096    2.589189649775
 H   -4.003704177553   -0.278890155928    2.586243005349
 H   -2.085594440033   -1.999737749192    2.574488106950
RB    0.434782752990   -0.979973857331   -4.600559797114
