17

 N   -1.960014435436   -0.992721361671    2.655115709303
 C   -0.749826368592   -0.337515157995    2.659077333271
 N    0.483586045711   -0.936192852457    2.671115618176
 C    1.454009245767   -0.046016710846    2.659243161203
 N    1.250932408354    1.315621422668    2.652408000861
 H    2.054759533605    1.935581962423    2.570419978439
 N    2.779464000004   -0.464691432526    2.580895857968
 H    3.434000205336    0.067111791874    3.148536634698
 H    2.858269087395   -1.465391576461    2.742479195957
 C   -0.008341333963    2.001655126199    2.665361787538
 O   -0.035921703068    3.229828210976    2.661273659110
 C   -1.081126459939    1.027961736925    2.671562985478
 N   -2.452199761708    1.214292782238    2.671487800762
 C   -2.945723256219   -0.024310231807    2.661157701097
 H   -4.003221169487   -0.278456853639    2.658211056671
 H   -2.085111431967   -1.999304446903    2.646456158272
RB    0.433923530926   -0.980744657891   -4.728583617013
