17

 N   -1.959772931404   -0.992504710526    2.691099734963
 C   -0.749584864560   -0.337298506850    2.695061358931
 N    0.483827549743   -0.935976201312    2.707099643836
 C    1.454250749799   -0.045800059701    2.695227186863
 N    1.251173912386    1.315838073813    2.688392026521
 H    2.055001037637    1.935798613568    2.606404004099
 N    2.779705504036   -0.464474781381    2.616879883628
 H    3.434241709368    0.067328443019    3.184520660358
 H    2.858510591427   -1.465174925316    2.778463221617
 C   -0.008099829931    2.001871777344    2.701345813198
 O   -0.035680199036    3.230044862121    2.697257684770
 C   -1.080884955907    1.028178388070    2.707547011138
 N   -2.451958257676    1.214509433383    2.707471826422
 C   -2.945481752187   -0.024093580662    2.697141726757
 H   -4.002979665455   -0.278240202494    2.694195082331
 H   -2.084869927935   -1.999087795758    2.682440183932
RB    0.433493919894   -0.981130058171   -4.792595526963
