17

 N   -1.959048419305   -0.991854757092    2.799051811946
 C   -0.748860352461   -0.336648553416    2.803013435914
 N    0.484552061842   -0.935326247878    2.815051720819
 C    1.454975261898   -0.045150106267    2.803179263846
 N    1.251898424485    1.316488027247    2.796344103504
 H    2.055725549736    1.936448567002    2.714356081082
 N    2.780430016135   -0.463824827947    2.724831960611
 H    3.434966221467    0.067978396453    3.292472737341
 H    2.859235103526   -1.464524971882    2.886415298600
 C   -0.007375317832    2.002521730778    2.809297890181
 O   -0.034955686937    3.230694815555    2.805209761753
 C   -1.080160443808    1.028828341504    2.815499088121
 N   -2.451233745577    1.215159386817    2.815423903405
 C   -2.944757240088   -0.023443627228    2.805093803740
 H   -4.002255153356   -0.277590249060    2.802147159314
 H   -2.084145415836   -1.998437842324    2.790392260915
RB    0.432205086798   -0.982286259011   -4.984631256813
