17

 N   -1.958806915273   -0.991638105947    2.835035837607
 C   -0.748618848429   -0.336431902271    2.838997461575
 N    0.484793565874   -0.935109596733    2.851035746479
 C    1.455216765930   -0.044933455122    2.839163289507
 N    1.252139928517    1.316704678392    2.832328129165
 H    2.055967053768    1.936665218147    2.750340106743
 N    2.780671520167   -0.463608176802    2.760815986272
 H    3.435207725499    0.068195047598    3.328456763002
 H    2.859476607558   -1.464308320737    2.922399324261
 C   -0.007133813800    2.002738381923    2.845281915842
 O   -0.034714182905    3.230911466700    2.841193787414
 C   -1.079918939776    1.029044992649    2.851483113782
 N   -2.450992241545    1.215376037962    2.851407929066
 C   -2.944515736056   -0.023226976083    2.841077829401
 H   -4.002013649324   -0.277373597915    2.838131184975
 H   -2.083903911804   -1.998221191179    2.826376286576
RB    0.431775475766   -0.982671659291   -5.048643166763
