17

 N   -1.958323907207   -0.991204803658    2.907003888928
 C   -0.748135840363   -0.335998599982    2.910965512896
 N    0.485276573940   -0.934676294444    2.923003797801
 C    1.455699773996   -0.044500152833    2.911131340828
 N    1.252622936583    1.317137980681    2.904296180486
 H    2.056450061834    1.937098520436    2.822308158064
 N    2.781154528233   -0.463174874513    2.832784037593
 H    3.435690733565    0.068628349887    3.400424814323
 H    2.859959615624   -1.463875018448    2.994367375582
 C   -0.006650805734    2.003171684212    2.917249967163
 O   -0.034231174839    3.231344768989    2.913161838735
 C   -1.079435931710    1.029478294938    2.923451165103
 N   -2.450509233479    1.215809340251    2.923375980387
 C   -2.944032727990   -0.022793673794    2.913045880722
 H   -4.001530641258   -0.276940295626    2.910099236296
 H   -2.083420903738   -1.997787888890    2.898344337897
RB    0.430916253703   -0.983442459851   -5.176666986663
