17

 N   -1.957840899142   -0.990771501368    2.978971940250
 C   -0.747652832298   -0.335565297692    2.982933564218
 N    0.485759582005   -0.934242992154    2.994971849123
 C    1.456182782061   -0.044066850543    2.983099392150
 N    1.253105944648    1.317571282971    2.976264231808
 H    2.056933069899    1.937531822726    2.894276209386
 N    2.781637536298   -0.462741572223    2.904752088915
 H    3.436173741630    0.069061652177    3.472392865645
 H    2.860442623689   -1.463441716158    3.066335426904
 C   -0.006167797669    2.003604986502    2.989218018485
 O   -0.033748166774    3.231778071279    2.985129890057
 C   -1.078952923645    1.029911597228    2.995419216425
 N   -2.450026225414    1.216242642541    2.995344031709
 C   -2.943549719925   -0.022360371504    2.985013932044
 H   -4.001047633193   -0.276506993336    2.982067287618
 H   -2.082937895673   -1.997354586600    2.970312389219
RB    0.430057031639   -0.984213260411   -5.304690806563
