17

 N   -1.957599395109   -0.990554850224    3.014955965910
 C   -0.747411328265   -0.335348646548    3.018917589878
 N    0.486001086038   -0.934026341010    3.030955874783
 C    1.456424286094   -0.043850199399    3.019083417810
 N    1.253347448681    1.317787934115    3.012248257468
 H    2.057174573932    1.937748473870    2.930260235046
 N    2.781879040331   -0.462524921079    2.940736114575
 H    3.436415245663    0.069278303321    3.508376891305
 H    2.860684127722   -1.463225065014    3.102319452564
 C   -0.005926293636    2.003821637646    3.025202044145
 O   -0.033506662741    3.231994722423    3.021113915717
 C   -1.078711419612    1.030128248372    3.031403242085
 N   -2.449784721381    1.216459293685    3.031328057369
 C   -2.943308215892   -0.022143720360    3.020997957704
 H   -4.000806129160   -0.276290342192    3.018051313278
 H   -2.082696391640   -1.997137935456    3.006296414879
RB    0.429627420607   -0.984598660691   -5.368702716512
