17

 N   -1.957357891076   -0.990338199079    3.050939991571
 C   -0.747169824232   -0.335131995403    3.054901615539
 N    0.486242590071   -0.933809689865    3.066939900444
 C    1.456665790127   -0.043633548254    3.055067443471
 N    1.253588952714    1.318004585260    3.048232283129
 H    2.057416077965    1.937965125015    2.966244260707
 N    2.782120544364   -0.462308269934    2.976720140236
 H    3.436656749696    0.069494954466    3.544360916966
 H    2.860925631755   -1.463008413869    3.138303478225
 C   -0.005684789603    2.004038288791    3.061186069806
 O   -0.033265158708    3.232211373568    3.057097941378
 C   -1.078469915579    1.030344899517    3.067387267746
 N   -2.449543217348    1.216675944830    3.067312083030
 C   -2.943066711859   -0.021927069215    3.056981983365
 H   -4.000564625127   -0.276073691047    3.054035338939
 H   -2.082454887607   -1.996921284311    3.042280440540
RB    0.429197809575   -0.984984060971   -5.432714626462
