17

 N   -1.957116387043   -0.990121547934    3.086924017232
 C   -0.746928320199   -0.334915344258    3.090885641200
 N    0.486484094104   -0.933593038720    3.102923926105
 C    1.456907294160   -0.043416897109    3.091051469132
 N    1.253830456747    1.318221236405    3.084216308790
 H    2.057657581998    1.938181776160    3.002228286368
 N    2.782362048397   -0.462091618789    3.012704165897
 H    3.436898253729    0.069711605611    3.580344942627
 H    2.861167135788   -1.462791762724    3.174287503886
 C   -0.005443285570    2.004254939936    3.097170095467
 O   -0.033023654675    3.232428024713    3.093081967039
 C   -1.078228411546    1.030561550662    3.103371293407
 N   -2.449301713315    1.216892595975    3.103296108691
 C   -2.942825207826   -0.021710418070    3.092966009026
 H   -4.000323121094   -0.275857039902    3.090019364600
 H   -2.082213383574   -1.996704633166    3.078264466201
RB    0.428768198543   -0.985369461251   -5.496726536412
