17

 N   -1.956874883011   -0.989904896789    3.122908042893
 C   -0.746686816167   -0.334698693113    3.126869666861
 N    0.486725598136   -0.933376387575    3.138907951766
 C    1.457148798192   -0.043200245964    3.127035494793
 N    1.254071960779    1.318437887550    3.120200334451
 H    2.057899086030    1.938398427305    3.038212312029
 N    2.782603552429   -0.461874967644    3.048688191558
 H    3.437139757761    0.069928256756    3.616328968288
 H    2.861408639820   -1.462575111579    3.210271529547
 C   -0.005201781538    2.004471591081    3.133154121128
 O   -0.032782150643    3.232644675858    3.129065992700
 C   -1.077986907514    1.030778201807    3.139355319068
 N   -2.449060209283    1.217109247120    3.139280134352
 C   -2.942583703794   -0.021493766925    3.128950034687
 H   -4.000081617062   -0.275640388757    3.126003390261
 H   -2.081971879542   -1.996487982021    3.114248491862
RB    0.428338587511   -0.985754861531   -5.560738446362
