17

 N   -1.956391874945   -0.989471594500    3.194876094214
 C   -0.746203808101   -0.334265390824    3.198837718182
 N    0.487208606202   -0.932943085286    3.210876003087
 C    1.457631806258   -0.042766943675    3.199003546114
 N    1.254554968845    1.318871189839    3.192168385772
 H    2.058382094096    1.938831729594    3.110180363350
 N    2.783086560495   -0.461441665355    3.120656242879
 H    3.437622765827    0.070361559045    3.688297019609
 H    2.861891647886   -1.462141809290    3.282239580868
 C   -0.004718773472    2.004904893370    3.205122172449
 O   -0.032299142577    3.233077978147    3.201034044021
 C   -1.077503899448    1.031211504096    3.211323370389
 N   -2.448577201217    1.217542549409    3.211248185673
 C   -2.942100695728   -0.021060464636    3.200918086008
 H   -3.999598608996   -0.275207086468    3.197971441582
 H   -2.081488871476   -1.996054679732    3.186216543183
RB    0.427479365447   -0.986525662091   -5.688762266262
