17

 N   -1.955425858814   -0.988604989921    3.338812196857
 C   -0.745237791970   -0.333398786245    3.342773820825
 N    0.488174622333   -0.932076480707    3.354812105730
 C    1.458597822389   -0.041900339096    3.342939648757
 N    1.255520984976    1.319737794418    3.336104488415
 H    2.059348110227    1.939698334173    3.254116465993
 N    2.784052576626   -0.460575060776    3.264592345522
 H    3.438588781958    0.071228163624    3.832233122252
 H    2.862857664017   -1.461275204711    3.426175683511
 C   -0.003752757341    2.005771497949    3.349058275092
 O   -0.031333126446    3.233944582726    3.344970146664
 C   -1.076537883317    1.032078108675    3.355259473032
 N   -2.447611185086    1.218409153988    3.355184288316
 C   -2.941134679597   -0.020193860057    3.344854188651
 H   -3.998632592865   -0.274340481889    3.341907544225
 H   -2.080522855345   -1.995188075153    3.330152645826
RB    0.425760921320   -0.988067263212   -5.944809906062
