17

 N   -1.953976834618   -0.987305083053    3.554716350822
 C   -0.743788767774   -0.332098879377    3.558677974790
 N    0.489623646529   -0.930776573839    3.570716259695
 C    1.460046846585   -0.040600432228    3.558843802722
 N    1.256970009172    1.321037701286    3.552008642380
 H    2.060797134423    1.940998241041    3.470020619958
 N    2.785501600822   -0.459275153908    3.480496499487
 H    3.440037806154    0.072528070492    4.048137276217
 H    2.864306688213   -1.459975297843    3.642079837476
 C   -0.002303733145    2.007071404817    3.564962429057
 O   -0.029884102250    3.235244489594    3.560874300629
 C   -1.075088859121    1.033378015543    3.571163626997
 N   -2.446162160890    1.219709060856    3.571088442281
 C   -2.939685655401   -0.018893953189    3.560758342616
 H   -3.997183568669   -0.273040575021    3.557811698190
 H   -2.079073831149   -1.993888168285    3.546056799791
RB    0.423183255128   -0.990379664892   -6.328881365761
