9

 C   -1.255537436404   -0.788134521931    0.000000000000
 H   -2.234464436404   -0.296346521931    0.000000000000
 H   -1.148391436404   -1.427943521931    0.888272000000
 H   -1.148391436404   -1.427943521931   -0.888272000000
 C   -0.170910436404    0.257449478069    0.000000000000
 O   -0.332014436404    1.467000478069    0.000000000000
 O    1.071375563596   -0.319558521931    0.000000000000
 H    1.705911563596    0.419004478069    0.000000000000
LI    1.160033704896   -1.315620635447    0.000000000000
