9

 C   -1.256465318904   -0.777709888718    0.000000000000
 H   -2.235392318904   -0.285921888718    0.000000000000
 H   -1.149319318904   -1.417518888718    0.888272000000
 H   -1.149319318904   -1.417518888718   -0.888272000000
 C   -0.171838318904    0.267874111282    0.000000000000
 O   -0.332942318904    1.477425111282    0.000000000000
 O    1.070447681096   -0.309133888718    0.000000000000
 H    1.704983681096    0.429429111282    0.000000000000
LI    1.167971636525   -1.404802213585    0.000000000000
