9

 C   -1.258321083905   -0.756860622292    0.000000000000
 H   -2.237248083905   -0.265072622292    0.000000000000
 H   -1.151175083905   -1.396669622292    0.888272000000
 H   -1.151175083905   -1.396669622292   -0.888272000000
 C   -0.173694083905    0.288723377708    0.000000000000
 O   -0.334798083905    1.498274377708    0.000000000000
 O    1.068591916095   -0.288284622292    0.000000000000
 H    1.703127916095    0.450278377708    0.000000000000
LI    1.183847499784   -1.583165369862    0.000000000000
