9

 C   -1.262032613907   -0.715162089439    0.000000000000
 H   -2.240959613907   -0.223374089439    0.000000000000
 H   -1.154886613907   -1.354971089439    0.888272000000
 H   -1.154886613907   -1.354971089439   -0.888272000000
 C   -0.177405613907    0.330421910561    0.000000000000
 O   -0.338509613907    1.539972910561    0.000000000000
 O    1.064880386093   -0.246586089439    0.000000000000
 H    1.699416386093    0.491976910561    0.000000000000
LI    1.215599226303   -1.939891682416    0.000000000000
