9

 C   -1.262960496407   -0.704737456226    0.000000000000
 H   -2.241887496407   -0.212949456226    0.000000000000
 H   -1.155814496407   -1.344546456226    0.888272000000
 H   -1.155814496407   -1.344546456226   -0.888272000000
 C   -0.178333496407    0.340846543774    0.000000000000
 O   -0.339437496407    1.550397543774    0.000000000000
 O    1.063952503593   -0.236161456226    0.000000000000
 H    1.698488503593    0.502401543774    0.000000000000
LI    1.223537157932   -2.029073260554    0.000000000000
