9

 C   -1.264816261408   -0.683888189800    0.000000000000
 H   -2.243743261408   -0.192100189800    0.000000000000
 H   -1.157670261408   -1.323697189800    0.888272000000
 H   -1.157670261408   -1.323697189800   -0.888272000000
 C   -0.180189261408    0.361695810200    0.000000000000
 O   -0.341293261408    1.571246810200    0.000000000000
 O    1.062096738592   -0.215312189800    0.000000000000
 H    1.696632738592    0.523250810200    0.000000000000
LI    1.239413021192   -2.207436416831    0.000000000000
