9

 C   -1.267599908909   -0.652614290160    0.000000000000
 H   -2.246526908909   -0.160826290160    0.000000000000
 H   -1.160453908909   -1.292423290160    0.888272000000
 H   -1.160453908909   -1.292423290160   -0.888272000000
 C   -0.182972908909    0.392969709840    0.000000000000
 O   -0.344076908909    1.602520709840    0.000000000000
 O    1.059313091091   -0.184038290160    0.000000000000
 H    1.693849091091    0.554524709840    0.000000000000
LI    1.263226816080   -2.474981151246    0.000000000000
