9

 C   -1.268527791409   -0.642189656947    0.000000000000
 H   -2.247454791409   -0.150401656947    0.000000000000
 H   -1.161381791409   -1.281998656947    0.888272000000
 H   -1.161381791409   -1.281998656947   -0.888272000000
 C   -0.183900791409    0.403394343053    0.000000000000
 O   -0.345004791409    1.612945343053    0.000000000000
 O    1.058385208591   -0.173613656947    0.000000000000
 H    1.692921208591    0.564949343053    0.000000000000
LI    1.271164747710   -2.564162729385    0.000000000000
