9

 C   -1.269455673910   -0.631765023734    0.000000000000
 H   -2.248382673910   -0.139977023734    0.000000000000
 H   -1.162309673910   -1.271574023734    0.888272000000
 H   -1.162309673910   -1.271574023734   -0.888272000000
 C   -0.184828673910    0.413818976266    0.000000000000
 O   -0.345932673910    1.623369976266    0.000000000000
 O    1.057457326090   -0.163189023734    0.000000000000
 H    1.691993326090    0.575373976266    0.000000000000
LI    1.279102679340   -2.653344307523    0.000000000000
