9

 C   -1.270383556410   -0.621340390521    0.000000000000
 H   -2.249310556410   -0.129552390521    0.000000000000
 H   -1.163237556410   -1.261149390521    0.888272000000
 H   -1.163237556410   -1.261149390521   -0.888272000000
 C   -0.185756556410    0.424243609479    0.000000000000
 O   -0.346860556410    1.633794609479    0.000000000000
 O    1.056529443590   -0.152764390521    0.000000000000
 H    1.691065443590    0.585798609479    0.000000000000
LI    1.287040610969   -2.742525885662    0.000000000000
