9

 C   -1.271311438910   -0.610915757308    0.000000000000
 H   -2.250238438910   -0.119127757308    0.000000000000
 H   -1.164165438910   -1.250724757308    0.888272000000
 H   -1.164165438910   -1.250724757308   -0.888272000000
 C   -0.186684438910    0.434668242692    0.000000000000
 O   -0.347788438910    1.644219242692    0.000000000000
 O    1.055601561090   -0.142339757308    0.000000000000
 H    1.690137561090    0.596223242692    0.000000000000
LI    1.294978542599   -2.831707463800    0.000000000000
