9

 C   -1.273167203911   -0.590066490881    0.000000000000
 H   -2.252094203911   -0.098278490881    0.000000000000
 H   -1.166021203911   -1.229875490881    0.888272000000
 H   -1.166021203911   -1.229875490881   -0.888272000000
 C   -0.188540203911    0.455517509119    0.000000000000
 O   -0.349644203911    1.665068509119    0.000000000000
 O    1.053745796089   -0.121490490881    0.000000000000
 H    1.688281796089    0.617072509119    0.000000000000
LI    1.310854405858   -3.010070620077    0.000000000000
