9

 C   -1.275022968912   -0.569217224455    0.000000000000
 H   -2.253949968912   -0.077429224455    0.000000000000
 H   -1.167876968912   -1.209026224455    0.888272000000
 H   -1.167876968912   -1.209026224455   -0.888272000000
 C   -0.190395968912    0.476366775545    0.000000000000
 O   -0.351499968912    1.685917775545    0.000000000000
 O    1.051890031088   -0.100641224455    0.000000000000
 H    1.686426031088    0.637921775545    0.000000000000
LI    1.326730269117   -3.188433776354    0.000000000000
