9

 C   -1.277806616413   -0.537943324816    0.000000000000
 H   -2.256733616413   -0.046155324816    0.000000000000
 H   -1.170660616413   -1.177752324816    0.888272000000
 H   -1.170660616413   -1.177752324816   -0.888272000000
 C   -0.193179616413    0.507640675184    0.000000000000
 O   -0.354283616413    1.717191675184    0.000000000000
 O    1.049106383587   -0.069367324816    0.000000000000
 H    1.683642383587    0.669195675184    0.000000000000
LI    1.350544064006   -3.455978510769    0.000000000000
