9

 C   -1.278734498913   -0.527518691603    0.000000000000
 H   -2.257661498913   -0.035730691603    0.000000000000
 H   -1.171588498913   -1.167327691603    0.888272000000
 H   -1.171588498913   -1.167327691603   -0.888272000000
 C   -0.194107498913    0.518065308397    0.000000000000
 O   -0.355211498913    1.727616308397    0.000000000000
 O    1.048178501087   -0.058942691603    0.000000000000
 H    1.682714501087    0.679620308397    0.000000000000
LI    1.358481995636   -3.545160088907    0.000000000000
