9

 C   -1.286157558916   -0.444121625897    0.000000000000
 H   -2.265084558916    0.047666374103    0.000000000000
 H   -1.179011558916   -1.083930625897    0.888272000000
 H   -1.179011558916   -1.083930625897   -0.888272000000
 C   -0.201530558916    0.601462374103    0.000000000000
 O   -0.362634558916    1.811013374103    0.000000000000
 O    1.040755441084    0.024454374103    0.000000000000
 H    1.675291441084    0.763017374103    0.000000000000
LI    1.421985448673   -4.258612714015    0.000000000000
