9

 C   -1.289869088918   -0.402423093045    0.000000000000
 H   -2.268796088918    0.089364906955    0.000000000000
 H   -1.182723088918   -1.042232093045    0.888272000000
 H   -1.182723088918   -1.042232093045   -0.888272000000
 C   -0.205242088918    0.643160906955    0.000000000000
 O   -0.366346088918    1.852711906955    0.000000000000
 O    1.037043911082    0.066152906955    0.000000000000
 H    1.671579911082    0.804715906955    0.000000000000
LI    1.453737175191   -4.615339026569    0.000000000000
