9

 C   -1.291724853918   -0.381573826619    0.000000000000
 H   -2.270651853918    0.110214173381    0.000000000000
 H   -1.184578853918   -1.021382826619    0.888272000000
 H   -1.184578853918   -1.021382826619   -0.888272000000
 C   -0.207097853918    0.664010173381    0.000000000000
 O   -0.368201853918    1.873561173381    0.000000000000
 O    1.035188146082    0.087002173381    0.000000000000
 H    1.669724146082    0.825565173381    0.000000000000
LI    1.469613038450   -4.793702182845    0.000000000000
