9

 C   -1.292652736419   -0.371149193405    0.000000000000
 H   -2.271579736419    0.120638806595    0.000000000000
 H   -1.185506736419   -1.010958193405    0.888272000000
 H   -1.185506736419   -1.010958193405   -0.888272000000
 C   -0.208025736419    0.674434806595    0.000000000000
 O   -0.369129736419    1.883985806595    0.000000000000
 O    1.034260263581    0.097426806595    0.000000000000
 H    1.668796263581    0.835989806595    0.000000000000
LI    1.477550970080   -4.882883760984    0.000000000000
