9

 C   -1.293580618919   -0.360724560192    0.000000000000
 H   -2.272507618919    0.131063439808    0.000000000000
 H   -1.186434618919   -1.000533560192    0.888272000000
 H   -1.186434618919   -1.000533560192   -0.888272000000
 C   -0.208953618919    0.684859439808    0.000000000000
 O   -0.370057618919    1.894410439808    0.000000000000
 O    1.033332381081    0.107851439808    0.000000000000
 H    1.667868381081    0.846414439808    0.000000000000
LI    1.485488901709   -4.972065339122    0.000000000000
