9

 C   -1.294508501419   -0.350299926979    0.000000000000
 H   -2.273435501419    0.141488073021    0.000000000000
 H   -1.187362501419   -0.990108926979    0.888272000000
 H   -1.187362501419   -0.990108926979   -0.888272000000
 C   -0.209881501419    0.695284073021    0.000000000000
 O   -0.370985501419    1.904835073021    0.000000000000
 O    1.032404498581    0.118276073021    0.000000000000
 H    1.666940498581    0.856839073021    0.000000000000
LI    1.493426833339   -5.061246917261    0.000000000000
