9

 C   -1.296364266420   -0.329450660553    0.000000000000
 H   -2.275291266420    0.162337339447    0.000000000000
 H   -1.189218266420   -0.969259660553    0.888272000000
 H   -1.189218266420   -0.969259660553   -0.888272000000
 C   -0.211737266420    0.716133339447    0.000000000000
 O   -0.372841266420    1.925684339447    0.000000000000
 O    1.030548733580    0.139125339447    0.000000000000
 H    1.665084733580    0.877688339447    0.000000000000
LI    1.509302696598   -5.239610073537    0.000000000000
