9

 C   -1.298220031421   -0.308601394127    0.000000000000
 H   -2.277147031421    0.183186605873    0.000000000000
 H   -1.191074031421   -0.948410394127    0.888272000000
 H   -1.191074031421   -0.948410394127   -0.888272000000
 C   -0.213593031421    0.736982605873    0.000000000000
 O   -0.374697031421    1.946533605873    0.000000000000
 O    1.028692968579    0.159974605873    0.000000000000
 H    1.663228968579    0.898537605873    0.000000000000
LI    1.525178559857   -5.417973229814    0.000000000000
