9

 C   -1.299147913921   -0.298176760913    0.000000000000
 H   -2.278074913921    0.193611239087    0.000000000000
 H   -1.192001913921   -0.937985760913    0.888272000000
 H   -1.192001913921   -0.937985760913   -0.888272000000
 C   -0.214520913921    0.747407239087    0.000000000000
 O   -0.375624913921    1.956958239087    0.000000000000
 O    1.027765086079    0.170399239087    0.000000000000
 H    1.662301086079    0.908962239087    0.000000000000
LI    1.533116491487   -5.507154807953    0.000000000000
