9

 C   -1.301931561422   -0.266902861274    0.000000000000
 H   -2.280858561422    0.224885138726    0.000000000000
 H   -1.194785561422   -0.906711861274    0.888272000000
 H   -1.194785561422   -0.906711861274   -0.888272000000
 C   -0.217304561422    0.778681138726    0.000000000000
 O   -0.378408561422    1.988232138726    0.000000000000
 O    1.024981438578    0.201673138726    0.000000000000
 H    1.659517438578    0.940236138726    0.000000000000
LI    1.556930286376   -5.774699542368    0.000000000000
