9

 C   -1.309354621425   -0.183505795569    0.000000000000
 H   -2.288281621425    0.308282204431    0.000000000000
 H   -1.202208621425   -0.823314795569    0.888272000000
 H   -1.202208621425   -0.823314795569   -0.888272000000
 C   -0.224727621425    0.862078204431    0.000000000000
 O   -0.385831621425    2.071629204431    0.000000000000
 O    1.017558378575    0.285070204431    0.000000000000
 H    1.652094378575    1.023633204431    0.000000000000
LI    1.620433739413   -6.488152167475    0.000000000000
