9

 C   -1.311210386426   -0.162656529143    0.000000000000
 H   -2.290137386426    0.329131470857    0.000000000000
 H   -1.204064386426   -0.802465529143    0.888272000000
 H   -1.204064386426   -0.802465529143   -0.888272000000
 C   -0.226583386426    0.882927470857    0.000000000000
 O   -0.387687386426    2.092478470857    0.000000000000
 O    1.015702613574    0.305919470857    0.000000000000
 H    1.650238613574    1.044482470857    0.000000000000
LI    1.636309602672   -6.666515323752    0.000000000000
