9

 C   -1.314921916427   -0.120957996290    0.000000000000
 H   -2.293848916427    0.370830003710    0.000000000000
 H   -1.207775916427   -0.760766996290    0.888272000000
 H   -1.207775916427   -0.760766996290   -0.888272000000
 C   -0.230294916427    0.924626003710    0.000000000000
 O   -0.391398916427    2.134177003710    0.000000000000
 O    1.011991083573    0.347618003710    0.000000000000
 H    1.646527083573    1.086181003710    0.000000000000
LI    1.668061329190   -7.023241636306    0.000000000000
