9

 C   -1.321417093930   -0.047985563798    0.000000000000
 H   -2.300344093930    0.443802436202    0.000000000000
 H   -1.214271093930   -0.687794563798    0.888272000000
 H   -1.214271093930   -0.687794563798   -0.888272000000
 C   -0.236790093930    0.997598436202    0.000000000000
 O   -0.397894093930    2.207149436202    0.000000000000
 O    1.005495906070    0.420590436202    0.000000000000
 H    1.640031906070    1.159153436202    0.000000000000
LI    1.723626850597   -7.647512683275    0.000000000000
