9

 C   -1.325128623931   -0.006287030946    0.000000000000
 H   -2.304055623931    0.485500969054    0.000000000000
 H   -1.217982623931   -0.646096030946    0.888272000000
 H   -1.217982623931   -0.646096030946   -0.888272000000
 C   -0.240501623931    1.039296969054    0.000000000000
 O   -0.401605623931    2.248847969054    0.000000000000
 O    1.001784376069    0.462288969054    0.000000000000
 H    1.636320376069    1.200851969054    0.000000000000
LI    1.755378577116   -8.004238995829    0.000000000000
