9

 C   -1.326056506432    0.004137602268    0.000000000000
 H   -2.304983506432    0.495925602268    0.000000000000
 H   -1.218910506432   -0.635671397732    0.888272000000
 H   -1.218910506432   -0.635671397732   -0.888272000000
 C   -0.241429506432    1.049721602268    0.000000000000
 O   -0.402533506432    2.259272602268    0.000000000000
 O    1.000856493568    0.472713602268    0.000000000000
 H    1.635392493568    1.211276602268    0.000000000000
LI    1.763316508745   -8.093420573967    0.000000000000
