9

 C   -1.326984388932    0.014562235481    0.000000000000
 H   -2.305911388932    0.506350235481    0.000000000000
 H   -1.219838388932   -0.625246764519    0.888272000000
 H   -1.219838388932   -0.625246764519   -0.888272000000
 C   -0.242357388932    1.060146235481    0.000000000000
 O   -0.403461388932    2.269697235481    0.000000000000
 O    0.999928611068    0.483138235481    0.000000000000
 H    1.634464611068    1.221701235481    0.000000000000
LI    1.771254440375   -8.182602152105    0.000000000000
