9

 C   -1.328840153933    0.035411501907    0.000000000000
 H   -2.307767153933    0.527199501907    0.000000000000
 H   -1.221694153933   -0.604397498093    0.888272000000
 H   -1.221694153933   -0.604397498093   -0.888272000000
 C   -0.244213153933    1.080995501907    0.000000000000
 O   -0.405317153933    2.290546501907    0.000000000000
 O    0.998072846067    0.503987501907    0.000000000000
 H    1.632608846067    1.242550501907    0.000000000000
LI    1.787130303634   -8.360965308382    0.000000000000
