9

 C   -1.330695918934    0.056260768333    0.000000000000
 H   -2.309622918934    0.548048768333    0.000000000000
 H   -1.223549918934   -0.583548231667    0.888272000000
 H   -1.223549918934   -0.583548231667   -0.888272000000
 C   -0.246068918934    1.101844768333    0.000000000000
 O   -0.407172918934    2.311395768333    0.000000000000
 O    0.996217081066    0.524836768333    0.000000000000
 H    1.630753081066    1.263399768333    0.000000000000
LI    1.803006166893   -8.539328464659    0.000000000000
