9

 C   -1.334407448935    0.097959301186    0.000000000000
 H   -2.313334448935    0.589747301186    0.000000000000
 H   -1.227261448935   -0.541849698814    0.888272000000
 H   -1.227261448935   -0.541849698814   -0.888272000000
 C   -0.249780448935    1.143543301186    0.000000000000
 O   -0.410884448935    2.353094301186    0.000000000000
 O    0.992505551065    0.566535301186    0.000000000000
 H    1.627041551065    1.305098301186    0.000000000000
LI    1.834757893412   -8.896054777213    0.000000000000
