9

 C   -1.335335331435    0.108383934399    0.000000000000
 H   -2.314262331435    0.600171934399    0.000000000000
 H   -1.228189331435   -0.531425065601    0.888272000000
 H   -1.228189331435   -0.531425065601   -0.888272000000
 C   -0.250708331435    1.153967934399    0.000000000000
 O   -0.411812331435    2.363518934399    0.000000000000
 O    0.991577668565    0.576959934399    0.000000000000
 H    1.626113668565    1.315522934399    0.000000000000
LI    1.842695825042   -8.985236355351    0.000000000000
