9

 C   -1.336263213936    0.118808567612    0.000000000000
 H   -2.315190213936    0.610596567612    0.000000000000
 H   -1.229117213936   -0.521000432388    0.888272000000
 H   -1.229117213936   -0.521000432388   -0.888272000000
 C   -0.251636213936    1.164392567612    0.000000000000
 O   -0.412740213936    2.373943567612    0.000000000000
 O    0.990649786064    0.587384567612    0.000000000000
 H    1.625185786064    1.325947567612    0.000000000000
LI    1.850633756671   -9.074417933490    0.000000000000
