9

 C   -1.338118978937    0.139657834038    0.000000000000
 H   -2.317045978937    0.631445834038    0.000000000000
 H   -1.230972978937   -0.500151165962    0.888272000000
 H   -1.230972978937   -0.500151165962   -0.888272000000
 C   -0.253491978937    1.185241834038    0.000000000000
 O   -0.414595978937    2.394792834038    0.000000000000
 O    0.988794021063    0.608233834038    0.000000000000
 H    1.623330021063    1.346796834038    0.000000000000
LI    1.866509619930   -9.252781089767    0.000000000000
