7

 C    0.011787885103    1.640720889501   -1.091570940096
 O    0.011787885103    0.205834889501   -1.091570940096
 H    0.930797885103   -0.090966110499   -1.091570940096
 H   -1.041531114897    1.948709889501   -1.091570940096
 H    0.500453885103    2.051653889501   -0.192130940096
 H    0.500453885103    2.051653889501   -1.991010940096
RB   -0.014451950968   -0.341397339820    0.411708261581
