7

 C    0.014169565307    1.690390870828   -1.228017307608
 O    0.014169565307    0.255504870828   -1.228017307608
 H    0.933179565307   -0.041296129172   -1.228017307608
 H   -1.039149434693    1.998379870828   -1.228017307608
 H    0.502835565307    2.101323870828   -0.328577307608
 H    0.502835565307    2.101323870828   -2.127457307608
RB   -0.015350250272   -0.360131387158    0.463171794279
