7

 C    0.016551245511    1.740060852155   -1.364463675120
 O    0.016551245511    0.305174852155   -1.364463675120
 H    0.935561245511    0.008373852155   -1.364463675120
 H   -1.036767754489    2.048049852155   -1.364463675120
 H    0.505217245511    2.150993852155   -0.465023675120
 H    0.505217245511    2.150993852155   -2.263903675120
RB   -0.016248549577   -0.378865434497    0.514635326976
