7

 C    0.018932925715    1.789730833482   -1.500910042632
 O    0.018932925715    0.354844833482   -1.500910042632
 H    0.937942925715    0.058043833482   -1.500910042632
 H   -1.034386074285    2.097719833482   -1.500910042632
 H    0.507598925715    2.200663833482   -0.601470042632
 H    0.507598925715    2.200663833482   -2.400350042632
RB   -0.017146848882   -0.397599481835    0.566098859674
