7

 C    0.020123765817    1.814565824145   -1.569133226388
 O    0.020123765817    0.379679824145   -1.569133226388
 H    0.939133765817    0.082878824145   -1.569133226388
 H   -1.033195234183    2.122554824145   -1.569133226388
 H    0.508789765817    2.225498824145   -0.669693226388
 H    0.508789765817    2.225498824145   -2.468573226388
RB   -0.017595998534   -0.406966505504    0.591830626023
