7

 C    0.021314605919    1.839400814808   -1.637356410144
 O    0.021314605919    0.404514814808   -1.637356410144
 H    0.940324605919    0.107713814808   -1.637356410144
 H   -1.032004394081    2.147389814808   -1.637356410144
 H    0.509980605919    2.250333814808   -0.737916410144
 H    0.509980605919    2.250333814808   -2.536796410144
RB   -0.018045148186   -0.416333529173    0.617562392372
