7

 C    0.024887126226    1.913905786799   -1.842025961412
 O    0.024887126226    0.479019786799   -1.842025961412
 H    0.943897126226    0.182218786799   -1.842025961412
 H   -1.028431873774    2.221894786799   -1.842025961412
 H    0.513553126226    2.324838786799   -0.942585961412
 H    0.513553126226    2.324838786799   -2.741465961412
RB   -0.019392597143   -0.444434600181    0.694757691418
