7

 C    0.027268806430    1.963575768126   -1.978472328924
 O    0.027268806430    0.528689768126   -1.978472328924
 H    0.946278806430    0.231888768126   -1.978472328924
 H   -1.026050193570    2.271564768126   -1.978472328924
 H    0.515934806430    2.374508768126   -1.079032328924
 H    0.515934806430    2.374508768126   -2.877912328924
RB   -0.020290896448   -0.463168647519    0.746221224116
