7

 C    0.029650486634    2.013245749452   -2.114918696436
 O    0.029650486634    0.578359749452   -2.114918696436
 H    0.948660486634    0.281558749452   -2.114918696436
 H   -1.023668513366    2.321234749452   -2.114918696436
 H    0.518316486634    2.424178749452   -1.215478696436
 H    0.518316486634    2.424178749452   -3.014358696436
RB   -0.021189195753   -0.481902694857    0.797684756813
