7

 C    0.051085608471    2.460275581394   -3.342936004044
 O    0.051085608471    1.025389581394   -3.342936004044
 H    0.970095608471    0.728588581394   -3.342936004044
 H   -1.002233391529    2.768264581394   -3.342936004044
 H    0.539751608471    2.871208581394   -2.443496004044
 H    0.539751608471    2.871208581394   -4.242376004044
RB   -0.029273889495   -0.650509120902    1.260856551092
