7

 C    0.054658128777    2.534780553384   -3.547605555312
 O    0.054658128777    1.099894553384   -3.547605555312
 H    0.973668128777    0.803093553384   -3.547605555312
 H   -0.998660871223    2.842769553384   -3.547605555312
 H    0.543324128777    2.945713553384   -2.648165555312
 H    0.543324128777    2.945713553384   -4.447045555312
RB   -0.030621338452   -0.678610191909    1.338051850139
