7

 C    0.057039808981    2.584450534711   -3.684051922824
 O    0.057039808981    1.149564534711   -3.684051922824
 H    0.976049808981    0.852763534711   -3.684051922824
 H   -0.996279191019    2.892439534711   -3.684051922824
 H    0.545705808981    2.995383534711   -2.784611922824
 H    0.545705808981    2.995383534711   -4.583491922824
RB   -0.031519637757   -0.697344239247    1.389515382836
