7

 C    0.064184849594    2.733460478692   -4.093391025360
 O    0.064184849594    1.298574478692   -4.093391025360
 H    0.983194849594    1.001773478692   -4.093391025360
 H   -0.989134150406    3.041449478692   -4.093391025360
 H    0.552850849594    3.144393478692   -3.193951025360
 H    0.552850849594    3.144393478692   -4.992831025360
RB   -0.034214535671   -0.753546381262    1.543905980929
