7

 C    0.076093250615    2.981810385326   -4.775622862921
 O    0.076093250615    1.546924385326   -4.775622862921
 H    0.995103250615    1.250123385326   -4.775622862921
 H   -0.977225749385    3.289799385326   -4.775622862921
 H    0.564759250615    3.392743385326   -3.876182862921
 H    0.564759250615    3.392743385326   -5.675062862921
RB   -0.038706032194   -0.847216617953    1.801223644417
