7

 C    0.099910052656    3.478510198595   -6.140086538041
 O    0.099910052656    2.043624198595   -6.140086538041
 H    1.018920052656    1.746823198595   -6.140086538041
 H   -0.953408947344    3.786499198595   -6.140086538041
 H    0.588576052656    3.889443198595   -5.240646538041
 H    0.588576052656    3.889443198595   -7.039526538041
RB   -0.047689025241   -1.034557091336    2.315858971394
