28

 P   -0.996923376788    1.342129801545   -0.378670638581
 O   -1.879553376788    2.558119801545   -0.479510638581
 O   -0.532863376788    0.552579801545   -1.620090638581
 O    0.358696623212    1.583699801545    0.611899361419
 O   -1.539583376788    0.217899801545    0.770219361419
 C    1.295796623212    2.573489801545    0.137059361419
 H    0.801666623212    3.552399801545    0.073989361419
 H    1.682826623212    2.285589801545   -0.851280638581
 H    2.115696623212    2.612009801545    0.863069361419
 C   -2.814943376788   -0.390510198455    0.476059361419
 H   -2.767653376788   -0.923980198455   -0.484520638581
 H   -3.594613376788    0.381989801545    0.436309361419
 H   -3.026393376788   -1.097380198455    1.286479361419
LI    0.114056623212    0.048009801545    1.781949361419
LI    0.528256623212   -0.912730198455   -1.537970638581
 P    0.960873341663   -1.293590867097    0.364979598930
 O   -0.394747408651   -1.535165503209   -0.625591985613
 O    1.503533480282   -0.169368984676   -0.783915943162
 O    1.843502313313   -2.509590053601    0.465812928854
 O    0.496816441793   -0.504040734009    1.606399497041
 C   -1.331854059837   -2.524947486534   -0.150744950570
 H   -0.837734762354   -3.503856622789   -0.087675842355
 H   -1.718879886409   -2.237044717749    0.837606734657
 H   -2.151760446901   -2.563468540266   -0.876755361839
 C    2.778885646245    0.439034141803   -0.489766359847
 H    2.731605863626    0.972512825760    0.470819480107
 H    3.558557262029   -0.333462590952   -0.450018053920
 H    2.990335998169    1.145909170690   -1.300191311713
