28

 P   -1.024456058889    1.379196192858   -0.389128662845
 O   -1.907086058889    2.595186192858   -0.489968662845
 O   -0.560396058889    0.589646192858   -1.630548662845
 O    0.331163941111    1.620766192858    0.601441337155
 O   -1.567116058889    0.254966192858    0.759761337155
 C    1.268263941111    2.610556192858    0.126601337155
 H    0.774133941111    3.589466192858    0.063531337155
 H    1.655293941111    2.322656192858   -0.861738662845
 H    2.088163941111    2.649076192858    0.852611337155
 C   -2.842476058889   -0.353443807142    0.465601337155
 H   -2.795186058889   -0.886913807142   -0.494978662845
 H   -3.622146058889    0.419056192858    0.425851337155
 H   -3.053926058889   -1.060313807142    1.276021337155
LI    0.086523941111    0.085076192858    1.771491337155
LI    0.500723941111   -0.875663807142   -1.548428662845
 P    0.991496724875   -1.334818172933    0.376611596259
 O   -0.364124025439   -1.576392809045   -0.613959988285
 O    1.534156863495   -0.210596290512   -0.772283945833
 O    1.874125696526   -2.550817359437    0.477444926183
 O    0.527439825005   -0.545268039845    1.618031494370
 C   -1.301230676625   -2.566174792370   -0.139112953242
 H   -0.807111379142   -3.545083928625   -0.076043845027
 H   -1.688256503196   -2.278272023585    0.849238731986
 H   -2.121137063689   -2.604695846102   -0.865123364511
 C    2.809509029457    0.397806835967   -0.478134362518
 H    2.762229246838    0.931285519924    0.482451477435
 H    3.589180645242   -0.374689896788   -0.438386056592
 H    3.020959381382    1.104681864854   -1.288559314384
