28

 P   -1.051988740991    1.416262584171   -0.399586687108
 O   -1.934618740991    2.632252584171   -0.500426687108
 O   -0.587928740991    0.626712584171   -1.641006687108
 O    0.303631259009    1.657832584171    0.590983312892
 O   -1.594648740991    0.292032584171    0.749303312892
 C    1.240731259009    2.647622584171    0.116143312892
 H    0.746601259009    3.626532584171    0.053073312892
 H    1.627761259009    2.359722584171   -0.872196687108
 H    2.060631259009    2.686142584171    0.842153312892
 C   -2.870008740991   -0.316377415829    0.455143312892
 H   -2.822718740991   -0.849847415829   -0.505436687108
 H   -3.649678740991    0.456122584171    0.415393312892
 H   -3.081458740991   -1.023247415829    1.265563312892
LI    0.058991259009    0.122142584171    1.761033312892
LI    0.473191259009   -0.838597415829   -1.558886687108
 P    1.022120108087   -1.376045478769    0.388243593588
 O   -0.333500642227   -1.617620114881   -0.602327990956
 O    1.564780246707   -0.251823596348   -0.760651948505
 O    1.904749079738   -2.592044665273    0.489076923512
 O    0.558063208217   -0.586495345681    1.629663491699
 C   -1.270607293412   -2.607402098206   -0.127480955913
 H   -0.776487995930   -3.586311234461   -0.064411847698
 H   -1.657633119984   -2.319499329421    0.860870729315
 H   -2.090513680476   -2.645923151938   -0.853491367182
 C    2.840132412670    0.356579530131   -0.466502365189
 H    2.792852630051    0.890058214088    0.494083474764
 H    3.619804028454   -0.415917202624   -0.426754059263
 H    3.051582764594    1.063454559018   -1.276927317055
