28

 P   -1.079521423092    1.453328975485   -0.410044711371
 O   -1.962151423092    2.669318975485   -0.510884711371
 O   -0.615461423092    0.663778975485   -1.651464711371
 O    0.276098576908    1.694898975485    0.580525288629
 O   -1.622181423092    0.329098975485    0.738845288629
 C    1.213198576908    2.684688975485    0.105685288629
 H    0.719068576908    3.663598975485    0.042615288629
 H    1.600228576908    2.396788975485   -0.882654711371
 H    2.033098576908    2.723208975485    0.831695288629
 C   -2.897541423092   -0.279311024515    0.444685288629
 H   -2.850251423092   -0.812781024515   -0.515894711371
 H   -3.677211423092    0.493188975485    0.404935288629
 H   -3.108991423092   -0.986181024515    1.255105288629
LI    0.031458576908    0.159208975485    1.750575288629
LI    0.445658576908   -0.801531024515   -1.569344711371
 P    1.052743491299   -1.417272784605    0.399875590917
 O   -0.302877259014   -1.658847420717   -0.590695993627
 O    1.595403629919   -0.293050902184   -0.749019951176
 O    1.935372462950   -2.633271971109    0.500708920841
 O    0.588686591430   -0.627722651517    1.641295489027
 C   -1.239983910200   -2.648629404042   -0.115848958584
 H   -0.745864612718   -3.627538540297   -0.052779850369
 H   -1.627009736772   -2.360726635257    0.872502726643
 H   -2.059890297264   -2.687150457774   -0.841859369853
 C    2.870755795882    0.315352224295   -0.454870367860
 H    2.823476013263    0.848830908252    0.505715472093
 H    3.650427411666   -0.457144508460   -0.415122061934
 H    3.082206147806    1.022227253182   -1.265295319726
