28

 P   -1.244717515701    1.675727323364   -0.472792856950
 O   -2.127347515701    2.891717323364   -0.573632856950
 O   -0.780657515701    0.886177323364   -1.714212856950
 O    0.110902484299    1.917297323364    0.517777143050
 O   -1.787377515701    0.551497323364    0.676097143050
 C    1.048002484299    2.907087323364    0.042937143050
 H    0.553872484299    3.885997323364   -0.020132856950
 H    1.435032484299    2.619187323364   -0.945402856950
 H    1.867902484299    2.945607323364    0.768947143050
 C   -3.062737515701   -0.056912676636    0.381937143050
 H   -3.015447515701   -0.590382676636   -0.578642856950
 H   -3.842407515701    0.715587323364    0.342187143050
 H   -3.274187515701   -0.763782676636    1.192357143050
LI   -0.133737515701    0.381607323364    1.687827143050
LI    0.280462484299   -0.579132676636   -1.632092856950
 P    1.236483790573   -1.664636619621    0.469667574889
 O   -0.119136959741   -1.906211255733   -0.520904009655
 O    1.779143929193   -0.540414737200   -0.679227967203
 O    2.119112762224   -2.880635806125    0.570500904813
 O    0.772426890703   -0.875086486534    1.711087473000
 C   -1.056243610927   -2.895993239058   -0.046056974612
 H   -0.562124313444   -3.874902375313    0.017012133603
 H   -1.443269437498   -2.608090470273    0.942294710616
 H   -1.876149997991   -2.934514292790   -0.772067385881
 C    3.054496095156    0.067988389279   -0.385078383888
 H    3.007216312536    0.601467073236    0.575507456065
 H    3.834167710940   -0.704508343476   -0.345330077962
 H    3.265946447080    0.774863418166   -1.195503335754
