28

 P   -1.327315562005    1.786926497304   -0.504166929740
 O   -2.209945562005    3.002916497304   -0.605006929740
 O   -0.863255562005    0.997376497304   -1.745586929740
 O    0.028304437995    2.028496497304    0.486403070260
 O   -1.869975562005    0.662696497304    0.644723070260
 C    0.965404437995    3.018286497304    0.011563070260
 H    0.471274437995    3.997196497304   -0.051506929740
 H    1.352434437995    2.730386497304   -0.976776929740
 H    1.785304437995    3.056806497304    0.737573070260
 C   -3.145335562005    0.054286497304    0.350563070260
 H   -3.098045562005   -0.479183502696   -0.610016929740
 H   -3.925005562005    0.826786497304    0.310813070260
 H   -3.356785562005   -0.652583502696    1.160983070260
LI   -0.216335562005    0.492806497304    1.656453070260
LI    0.197864437995   -0.467933502696   -1.663466929740
 P    1.328353940210   -1.788318537129    0.504563566875
 O   -0.027266810104   -2.029893173241   -0.486008017669
 O    1.871014078830   -0.664096654708   -0.644331975217
 O    2.210982911860   -3.004317723633    0.605396896799
 O    0.864297040340   -0.998768404042    1.745983464986
 C   -0.964373461290   -3.019675156566   -0.011160982626
 H   -0.470254163807   -3.998584292821    0.051908125589
 H   -1.351399287862   -2.731772387781    0.977190702602
 H   -1.784279848354   -3.058196210298   -0.737171393895
 C    3.146366244792   -0.055693528229   -0.350182391902
 H    3.099086462173    0.477785155728    0.610403448051
 H    3.926037860576   -0.828190260984   -0.310434085976
 H    3.357816596716    0.651181500658   -1.160607343768
