28

 P   -1.464978972512    1.972258453870   -0.556457051056
 O   -2.347608972512    3.188248453870   -0.657297051056
 O   -1.000918972512    1.182708453870   -1.797877051056
 O   -0.109358972512    2.213828453870    0.434112948944
 O   -2.007638972512    0.848028453870    0.592432948944
 C    0.827741027488    3.203618453870   -0.040727051056
 H    0.333611027488    4.182528453870   -0.103797051056
 H    1.214771027488    2.915718453870   -1.029067051056
 H    1.647641027488    3.242138453870    0.685282948944
 C   -3.282998972512    0.239618453870    0.298272948944
 H   -3.235708972512   -0.293851546130   -0.662307051056
 H   -4.062668972512    1.012118453870    0.258522948944
 H   -3.494448972512   -0.467251546130    1.108692948944
LI   -0.353998972512    0.678138453870    1.604162948944
LI    0.060201027488   -0.282601546130   -1.715757051056
 P    1.481470856271   -1.994455066309    0.562723553519
 O    0.125850105957   -2.236029702421   -0.427848031025
 O    2.024130994891   -0.870233183888   -0.586171988574
 O    2.364099827922   -3.210454252813    0.663556883443
 O    1.017413956401   -1.204904933222    1.804143451629
 C   -0.811256545229   -3.225811685746    0.046999004018
 H   -0.317137247746   -4.204720822001    0.110068112233
 H   -1.198282371800   -2.937908916961    1.035350689246
 H   -1.631162932293   -3.264332739478   -0.679011407251
 C    3.299483160854   -0.261830057409   -0.292022405258
 H    3.252203378235    0.271648626548    0.668563434695
 H    4.079154776638   -1.034326790164   -0.252274099332
 H    3.510933512778    0.445044971478   -1.102447357124
