28

 P   -1.575109700918    2.120524019123   -0.598289148109
 O   -2.457739700918    3.336514019123   -0.699129148109
 O   -1.111049700918    1.330974019123   -1.839709148109
 O   -0.219489700918    2.362094019123    0.392280851891
 O   -2.117769700918    0.996294019123    0.550600851891
 C    0.717610299082    3.351884019123   -0.082559148109
 H    0.223480299082    4.330794019123   -0.145629148109
 H    1.104640299082    3.063984019123   -1.070899148109
 H    1.537510299082    3.390404019123    0.643450851891
 C   -3.393129700918    0.387884019123    0.256440851891
 H   -3.345839700918   -0.145585980877   -0.704139148109
 H   -4.172799700918    1.160384019123    0.216690851891
 H   -3.604579700918   -0.318985980877    1.066860851891
LI   -0.464129700918    0.826404019123    1.562330851891
LI   -0.049929700918   -0.134335980877   -1.757589148109
 P    1.603964389120   -2.159364289653    0.609251542834
 O    0.248343638806   -2.400938925765   -0.381320041710
 O    2.146624527740   -1.035142407232   -0.539643999259
 O    2.486593360771   -3.375363476157    0.710084872758
 O    1.139907489250   -1.369814156566    1.850671440944
 C   -0.688763012380   -3.390720909090    0.093526993333
 H   -0.194643714897   -4.369630045345    0.156596101548
 H   -1.075788838951   -3.102818140305    1.081878678561
 H   -1.508669399444   -3.429241962822   -0.632483417936
 C    3.421976693703   -0.426739280753   -0.245494415943
 H    3.374696911084    0.106739403204    0.715091424010
 H    4.201648309487   -1.199236013508   -0.205746110017
 H    3.633427045627    0.280135748134   -1.055919367809
