28

 P   -1.905501886135    2.565320714882   -0.723785439268
 O   -2.788131886135    3.781310714882   -0.824625439268
 O   -1.441441886135    1.775770714882   -1.965205439268
 O   -0.549881886135    2.806890714882    0.266784560732
 O   -2.448161886135    1.441090714882    0.425104560732
 C    0.387218113865    3.796680714882   -0.208055439268
 H   -0.106911886135    4.775590714882   -0.271125439268
 H    0.774248113865    3.508780714882   -1.196395439268
 H    1.207118113865    3.835200714882    0.517954560732
 C   -3.723521886135    0.832680714882    0.130944560732
 H   -3.676231886135    0.299210714882   -0.829635439268
 H   -4.503191886135    1.605180714882    0.091194560732
 H   -3.934971886135    0.125810714882    0.941364560732
LI   -0.794521886135    1.271200714882    1.436834560732
LI   -0.380321886135    0.310460714882   -1.883085439268
 P    1.971444987667   -2.654091959685    0.748835510778
 O    0.615824237353   -2.895666595797   -0.241736073765
 O    2.514105126287   -1.529870077264   -0.400060031314
 O    2.854073959318   -3.870091146189    0.849668840702
 O    1.507388087797   -1.864541826598    1.990255408889
 C   -0.321282413832   -3.885448579122    0.233110961278
 H    0.172836883650   -4.864357715377    0.296180069493
 H   -0.708308240404   -3.597545810337    1.221462646505
 H   -1.141188800896   -3.923969632854   -0.492899449991
 C    3.789457292250   -0.921466950785   -0.105910447999
 H    3.742177509631   -0.387988266828    0.854675391955
 H    4.569128908034   -1.693963683540   -0.066162142072
 H    4.000907644174   -0.214591921898   -0.916335399865
