28

 P   -1.960567250338    2.639453497508   -0.744701487795
 O   -2.843197250338    3.855443497508   -0.845541487795
 O   -1.496507250338    1.849903497508   -1.986121487795
 O   -0.604947250338    2.881023497508    0.245868512205
 O   -2.503227250338    1.515223497508    0.404188512205
 C    0.332152749662    3.870813497508   -0.228971487795
 H   -0.161977250338    4.849723497508   -0.292041487795
 H    0.719182749662    3.582913497508   -1.217311487795
 H    1.152052749662    3.909333497508    0.497038512205
 C   -3.778587250338    0.906813497508    0.110028512205
 H   -3.731297250338    0.373343497508   -0.850551487795
 H   -4.558257250338    1.679313497508    0.070278512205
 H   -3.990037250338    0.199943497508    0.920448512205
LI   -0.849587250338    1.345333497508    1.415918512205
LI   -0.435387250338    0.384593497508   -1.904001487795
 P    2.032691754092   -2.736546571357    0.772099505436
 O    0.677071003778   -2.978121207470   -0.218472079108
 O    2.575351892711   -1.612324688936   -0.376796036657
 O    2.915320725742   -3.952545757861    0.872932835360
 O    1.568634854222   -1.946996438270    2.013519403547
 C   -0.260035647408   -3.967903190794    0.256374955935
 H    0.234083650075   -4.946812327049    0.319444064150
 H   -0.647061473980   -3.680000422009    1.244726641163
 H   -1.079942034472   -4.006424244526   -0.469635455334
 C    3.850704058674   -1.003921562457   -0.082646453341
 H    3.803424276055   -0.470442878500    0.877939386612
 H    4.630375674458   -1.776418295212   -0.042898147415
 H    4.062154410598   -0.297046533570   -0.893071405207
