28

 P   -2.098230660845    2.824785454074   -0.796991609111
 O   -2.980860660845    4.040775454074   -0.897831609111
 O   -1.634170660845    2.035235454074   -2.038411609111
 O   -0.742610660845    3.066355454074    0.193578390889
 O   -2.640890660845    1.700555454074    0.351898390889
 C    0.194489339155    4.056145454074   -0.281261609111
 H   -0.299640660845    5.035055454074   -0.344331609111
 H    0.581519339155    3.768245454074   -1.269601609111
 H    1.014389339155    4.094665454074    0.444748390889
 C   -3.916250660845    1.092145454074    0.057738390889
 H   -3.868960660845    0.558675454074   -0.902841609111
 H   -4.695920660845    1.864645454074    0.017988390889
 H   -4.127700660845    0.385275454074    0.868158390889
LI   -0.987250660845    1.530665454074    1.363628390889
LI   -0.573050660845    0.569925454074   -1.956291609111
 P    2.185808670153   -2.942683100537    0.830259492080
 O    0.830187919839   -3.184257736650   -0.160312092464
 O    2.728468808773   -1.818461218116   -0.318636050013
 O    3.068437641804   -4.158682287041    0.931092822004
 O    1.721751770283   -2.153132967450    2.071679390190
 C   -0.106918731347   -4.174039719974    0.314534942579
 H    0.387200566136   -5.152948856229    0.377604050794
 H   -0.493944557918   -3.886136951189    1.302886627806
 H   -0.926825118411   -4.212560773706   -0.411475468690
 C    4.003820974736   -1.210058091637   -0.024486466697
 H    3.956541192116   -0.676579407680    0.936099373256
 H    4.783492590520   -1.982554824392    0.015261839229
 H    4.215271326660   -0.503183062750   -0.834911418564
