28

 P   -2.125763342946    2.861851845388   -0.807449633374
 O   -3.008393342946    4.077841845388   -0.908289633374
 O   -1.661703342946    2.072301845388   -2.048869633374
 O   -0.770143342946    3.103421845388    0.183120366626
 O   -2.668423342946    1.737621845388    0.341440366626
 C    0.166956657054    4.093211845388   -0.291719633374
 H   -0.327173342946    5.072121845388   -0.354789633374
 H    0.553986657054    3.805311845388   -1.280059633374
 H    0.986856657054    4.131731845388    0.434290366626
 C   -3.943783342946    1.129211845388    0.047280366626
 H   -3.896493342946    0.595741845388   -0.913299633374
 H   -4.723453342946    1.901711845388    0.007530366626
 H   -4.155233342946    0.422341845388    0.857700366626
LI   -1.014783342946    1.567731845388    1.353170366626
LI   -0.600583342946    0.606991845388   -1.966749633374
 P    2.216432053365   -2.983910406373    0.841891489408
 O    0.860811303051   -3.225485042486   -0.148680095136
 O    2.759092191985   -1.859688523952   -0.307004052684
 O    3.099061025016   -4.199909592877    0.942724819332
 O    1.752375153495   -2.194360273286    2.083311387519
 C   -0.076295348134   -4.215267025810    0.326166939908
 H    0.417823949348   -5.194176162065    0.389236048122
 H   -0.463321174706   -3.927364257025    1.314518625135
 H   -0.896201735198   -4.253788079542   -0.399843471362
 C    4.034444357948   -1.251285397473   -0.012854469369
 H    3.987164575329   -0.717806713516    0.947731370584
 H    4.814115973732   -2.023782130228    0.026893836558
 H    4.245894709872   -0.544410368586   -0.823279421235
