28

 P   -2.153296025048    2.898918236701   -0.817907657638
 O   -3.035926025048    4.114908236701   -0.918747657638
 O   -1.689236025048    2.109368236701   -2.059327657638
 O   -0.797676025048    3.140488236701    0.172662342362
 O   -2.695956025048    1.774688236701    0.330982342362
 C    0.139423974952    4.130278236701   -0.302177657638
 H   -0.354706025048    5.109188236701   -0.365247657638
 H    0.526453974952    3.842378236701   -1.290517657638
 H    0.959323974952    4.168798236701    0.423832342362
 C   -3.971316025048    1.166278236701    0.036822342362
 H   -3.924026025048    0.632808236701   -0.923757657638
 H   -4.750986025048    1.938778236701   -0.002927657638
 H   -4.182766025048    0.459408236701    0.847242342362
LI   -1.042316025048    1.604798236701    1.342712342362
LI   -0.628116025048    0.644058236701   -1.977207657638
 P    2.247055436578   -3.025137712209    0.853523486737
 O    0.891434686264   -3.266712348322   -0.137048097807
 O    2.789715575197   -1.900915829788   -0.295372055355
 O    3.129684408228   -4.241136898713    0.954356816661
 O    1.782998536708   -2.235587579122    2.094943384848
 C   -0.045671964922   -4.256494331646    0.337798937236
 H    0.448447332561   -5.235403467902    0.400868045451
 H   -0.432697791494   -3.968591562861    1.326150622464
 H   -0.865578351986   -4.295015385378   -0.388211474033
 C    4.065067741160   -1.292512703309   -0.001222472040
 H    4.017787958541   -0.759034019352    0.959363367913
 H    4.844739356944   -2.065009436064    0.038525833886
 H    4.276518093084   -0.585637674422   -0.811647423906
