28

 P   -2.208361389250    2.973051019327   -0.838823706164
 O   -3.090991389250    4.189041019327   -0.939663706164
 O   -1.744301389250    2.183501019327   -2.080243706164
 O   -0.852741389250    3.214621019327    0.151746293836
 O   -2.751021389250    1.848821019327    0.310066293836
 C    0.084358610750    4.204411019327   -0.323093706164
 H   -0.409771389250    5.183321019327   -0.386163706164
 H    0.471388610750    3.916511019327   -1.311433706164
 H    0.904258610750    4.242931019327    0.402916293836
 C   -4.026381389250    1.240411019327    0.015906293836
 H   -3.979091389250    0.706941019327   -0.944673706164
 H   -4.806051389250    2.012911019327   -0.023843706164
 H   -4.237831389250    0.533541019327    0.826326293836
LI   -1.097381389250    1.678931019327    1.321796293836
LI   -0.683181389250    0.718191019327   -1.998123706164
 P    2.308302203002   -3.107592323881    0.876787481394
 O    0.952681452688   -3.349166959994   -0.113784103149
 O    2.850962341622   -1.983370441460   -0.272108060698
 O    3.190931174653   -4.323591510385    0.977620811318
 O    1.844245303132   -2.318042190794    2.118207379505
 C    0.015574801502   -4.338948943318    0.361062931894
 H    0.509694098985   -5.317858079574    0.424132040109
 H   -0.371451025069   -4.051046174533    1.349414617121
 H   -0.804331585562   -4.377469997050   -0.364947479375
 C    4.126314507585   -1.374967314981    0.022041522617
 H    4.079034724965   -0.841488631024    0.982627362571
 H    4.905986123369   -2.147464047736    0.061789828544
 H    4.337764859509   -0.668092286094   -0.788383429249
