28

 P   -2.263426753453    3.047183801954   -0.859739754691
 O   -3.146056753453    4.263173801954   -0.960579754691
 O   -1.799366753453    2.257633801954   -2.101159754691
 O   -0.907806753453    3.288753801954    0.130830245309
 O   -2.806086753453    1.922953801954    0.289150245309
 C    0.029293246547    4.278543801954   -0.344009754691
 H   -0.464836753453    5.257453801954   -0.407079754691
 H    0.416323246547    3.990643801954   -1.332349754691
 H    0.849193246547    4.317063801954    0.382000245309
 C   -4.081446753453    1.314543801954   -0.005009754691
 H   -4.034156753453    0.781073801954   -0.965589754691
 H   -4.861116753453    2.087043801954   -0.044759754691
 H   -4.292896753453    0.607673801954    0.805410245309
LI   -1.152446753453    1.753063801954    1.300880245309
LI   -0.738246753453    0.792323801954   -2.019039754691
 P    2.369548969427   -3.190046935553    0.900051476052
 O    1.013928219113   -3.431621571666   -0.090520108492
 O    2.912209108046   -2.065825053132   -0.248844066041
 O    3.252177941077   -4.406046122057    1.000884805976
 O    1.905492069557   -2.400496802466    2.141471374163
 C    0.076821567927   -4.421403554990    0.384326926551
 H    0.570940865410   -5.400312691246    0.447396034766
 H   -0.310204258645   -4.133500786205    1.372678611779
 H   -0.743084819137   -4.459924608722   -0.341683484718
 C    4.187561274009   -1.457421926653    0.045305517275
 H    4.140281491390   -0.923943242696    1.005891357228
 H    4.967232889793   -2.229918659408    0.085053823201
 H    4.399011625933   -0.750546897766   -0.765119434591
