28

 P   -2.428622846062    3.269582149833   -0.922487900270
 O   -3.311252846062    4.485572149833   -1.023327900270
 O   -1.964562846062    2.480032149833   -2.163907900270
 O   -1.073002846062    3.511152149833    0.068082099730
 O   -2.971282846062    2.145352149833    0.226402099730
 C   -0.135902846062    4.500942149833   -0.406757900270
 H   -0.630032846062    5.479852149833   -0.469827900270
 H    0.251127153938    4.213042149833   -1.395097900270
 H    0.683997153938    4.539462149833    0.319252099730
 C   -4.246642846062    1.536942149833   -0.067757900270
 H   -4.199352846062    1.003472149833   -1.028337900270
 H   -5.026312846062    2.309442149833   -0.107507900270
 H   -4.458092846062    0.830072149833    0.742662099730
LI   -1.317642846062    1.975462149833    1.238132099730
LI   -0.903442846062    1.014722149833   -2.081787900270
 P    2.553289268700   -3.437410770569    0.969843460024
 O    1.197668518386   -3.678985406682   -0.020728124520
 O    3.095949407320   -2.313188888148   -0.179052082068
 O    3.435918240351   -4.653409957073    1.070676789948
 O    2.089232368830   -2.647860637482    2.211263358135
 C    0.260561867200   -4.668767390006    0.454118910524
 H    0.754681164683   -5.647676526262    0.517188018738
 H   -0.126463959371   -4.380864621221    1.442470595751
 H   -0.559344519864   -4.707288443738   -0.271891500746
 C    4.371301573283   -1.704785761669    0.115097501247
 H    4.324021790664   -1.171307077712    1.075683341200
 H    5.150973189067   -2.477282494424    0.154845807174
 H    4.582751925207   -0.997910732782   -0.695327450619
