28

 P   -2.511220892366    3.380781323773   -0.953861973060
 O   -3.393850892366    4.596771323773   -1.054701973060
 O   -2.047160892366    2.591231323773   -2.195281973060
 O   -1.155600892366    3.622351323773    0.036708026940
 O   -3.053880892366    2.256551323773    0.195028026940
 C   -0.218500892366    4.612141323773   -0.438131973060
 H   -0.712630892366    5.591051323773   -0.501201973060
 H    0.168529107634    4.324241323773   -1.426471973060
 H    0.601399107634    4.650661323773    0.287878026940
 C   -4.329240892366    1.648141323773   -0.099131973060
 H   -4.281950892366    1.114671323773   -1.059711973060
 H   -5.108910892366    2.420641323773   -0.138881973060
 H   -4.540690892366    0.941271323773    0.711288026940
LI   -1.400240892366    2.086661323773    1.206758026940
LI   -0.986040892366    1.125921323773   -2.113161973060
 P    2.645159418337   -3.561092688077    1.004739452010
 O    1.289538668023   -3.802667324190    0.014167867467
 O    3.187819556957   -2.436870805656   -0.144156090082
 O    3.527788389987   -4.777091874581    1.105572781934
 O    2.181102518467   -2.771542554990    2.246159350121
 C    0.352432016837   -4.792449307514    0.489014902510
 H    0.846551314320   -5.771358443770    0.552084010725
 H   -0.034593809734   -4.504546538729    1.477366587737
 H   -0.467474370227   -4.830970361246   -0.236995508759
 C    4.463171722919   -1.828467679177    0.149993493233
 H    4.415891940300   -1.294988995220    1.110579333187
 H    5.242843338703   -2.600964411932    0.189741799160
 H    4.674622074844   -1.121592650290   -0.660431458633
