28

 P   -2.621351620772    3.529046889026   -0.995694070113
 O   -3.503981620772    4.745036889026   -1.096534070113
 O   -2.157291620772    2.739496889026   -2.237114070113
 O   -1.265731620772    3.770616889026   -0.005124070113
 O   -3.164011620772    2.404816889026    0.153195929887
 C   -0.328631620772    4.760406889026   -0.479964070113
 H   -0.822761620772    5.739316889026   -0.543034070113
 H    0.058398379228    4.472506889026   -1.468304070113
 H    0.491268379228    4.798926889026    0.246045929887
 C   -4.439371620772    1.796406889026   -0.140964070113
 H   -4.392081620772    1.262936889026   -1.101544070113
 H   -5.219041620772    2.568906889026   -0.180714070113
 H   -4.650821620772    1.089536889026    0.669455929887
LI   -1.510371620772    2.234926889026    1.164925929887
LI   -1.096171620772    1.274186889026   -2.154994070113
 P    2.767652951186   -3.726001911421    1.051267441325
 O    1.412032200872   -3.967576547534    0.060695856782
 O    3.310313089806   -2.601780029000   -0.097628100767
 O    3.650281922836   -4.942001097925    1.152100771249
 O    2.303596051316   -2.936451778334    2.292687339436
 C    0.474925549686   -4.957358530858    0.535542891825
 H    0.969044847169   -5.936267667114    0.598612000039
 H    0.087899723115   -4.669455762073    1.523894577052
 H   -0.344980837378   -4.995879584590   -0.190467519444
 C    4.585665255768   -1.993376902521    0.196521482548
 H    4.538385473149   -1.459898218564    1.157107322501
 H    5.365336871552   -2.765873635276    0.236269788475
 H    4.797115607693   -1.286501873634   -0.613903469318
