28

 P   -2.676416984975    3.603179671652   -1.016610118639
 O   -3.559046984975    4.819169671652   -1.117450118639
 O   -2.212356984975    2.813629671652   -2.258030118639
 O   -1.320796984975    3.844749671652   -0.026040118639
 O   -3.219076984975    2.478949671652    0.132279881361
 C   -0.383696984975    4.834539671652   -0.500880118639
 H   -0.877826984975    5.813449671652   -0.563950118639
 H    0.003333015025    4.546639671652   -1.489220118639
 H    0.436203015025    4.873059671652    0.225129881361
 C   -4.494436984975    1.870539671652   -0.161880118639
 H   -4.447146984975    1.337069671652   -1.122460118639
 H   -5.274106984975    2.643039671652   -0.201630118639
 H   -4.705886984975    1.163669671652    0.648539881361
LI   -1.565436984975    2.309059671652    1.144009881361
LI   -1.151236984975    1.348319671652   -2.175910118639
 P    2.828899717610   -3.808456523093    1.074531435983
 O    1.473278967297   -4.050031159206    0.083959851439
 O    3.371559856230   -2.684234640672   -0.074364106110
 O    3.711528689261   -5.024455709597    1.175364765907
 O    2.364842817741   -3.018906390006    2.315951334093
 C    0.536172316111   -5.039813142530    0.558806886482
 H    1.030291613593   -6.018722278786    0.621875994697
 H    0.149146489539   -4.751910373745    1.547158571710
 H   -0.283734070953   -5.078334196262   -0.167203524787
 C    4.646912022193   -2.075831514193    0.219785477206
 H    4.599632239574   -1.542352830236    1.180371317159
 H    5.426583637977   -2.848328246948    0.259533783132
 H    4.858362374117   -1.368956485306   -0.590639474660
