28

 P   -2.703949667076    3.640246062966   -1.027068142902
 O   -3.586579667076    4.856236062966   -1.127908142902
 O   -2.239889667076    2.850696062966   -2.268488142902
 O   -1.348329667076    3.881816062966   -0.036498142902
 O   -3.246609667076    2.516016062966    0.121821857098
 C   -0.411229667076    4.871606062966   -0.511338142902
 H   -0.905359667076    5.850516062966   -0.574408142902
 H   -0.024199667076    4.583706062966   -1.499678142902
 H    0.408670332924    4.910126062966    0.214671857098
 C   -4.521969667076    1.907606062966   -0.172338142902
 H   -4.474679667076    1.374136062966   -1.132918142902
 H   -5.301639667076    2.680106062966   -0.212088142902
 H   -4.733419667076    1.200736062966    0.638081857098
LI   -1.592969667076    2.346126062966    1.133551857098
LI   -1.178769667076    1.385386062966   -2.186368142902
 P    2.859523100823   -3.849683828929    1.086163433312
 O    1.503902350509   -4.091258465042    0.095591848768
 O    3.402183239442   -2.725461946508   -0.062732108781
 O    3.742152072473   -5.065683015433    1.186996763236
 O    2.395466200953   -3.060133695842    2.327583331422
 C    0.566795699323   -5.081040448366    0.570438883811
 H    1.060914996806   -6.059949584622    0.633507992026
 H    0.179769872751   -4.793137679581    1.558790569038
 H   -0.253110687741   -5.119561502098   -0.155571527458
 C    4.677535405405   -2.117058820029    0.231417474535
 H    4.630255622786   -1.583580136072    1.192003314488
 H    5.457207021189   -2.889555552784    0.271165780461
 H    4.888985757329   -1.410183791142   -0.579007477332
