28

 P   -2.731482349177    3.677312454279   -1.037526167166
 O   -3.614112349177    4.893302454279   -1.138366167166
 O   -2.267422349177    2.887762454279   -2.278946167166
 O   -1.375862349177    3.918882454279   -0.046956167166
 O   -3.274142349177    2.553082454279    0.111363832834
 C   -0.438762349177    4.908672454279   -0.521796167166
 H   -0.932892349177    5.887582454279   -0.584866167166
 H   -0.051732349177    4.620772454279   -1.510136167166
 H    0.381137650823    4.947192454279    0.204213832834
 C   -4.549502349177    1.944672454279   -0.182796167166
 H   -4.502212349177    1.411202454279   -1.143376167166
 H   -5.329172349177    2.717172454279   -0.222546167166
 H   -4.760952349177    1.237802454279    0.627623832834
LI   -1.620502349177    2.383192454279    1.123093832834
LI   -1.206302349177    1.422452454279   -2.196826167166
 P    2.890146484035   -3.890911134765    1.097795430640
 O    1.534525733721   -4.132485770878    0.107223846096
 O    3.432806622655   -2.766689252344   -0.051100111452
 O    3.772775455686   -5.106910321269    1.198628760564
 O    2.426089584165   -3.101361001678    2.339215328751
 C    0.597419082535   -5.122267754202    0.582070881140
 H    1.091538380018   -6.101176890458    0.645139989354
 H    0.210393255964   -4.834364985417    1.570422566367
 H   -0.222487304529   -5.160788807934   -0.143939530130
 C    4.708158788617   -2.158286125865    0.243049471863
 H    4.660879005998   -1.624807441908    1.203635311816
 H    5.487830404402   -2.930782858620    0.282797777790
 H    4.919609140542   -1.451411096978   -0.567375480003
