28

 P   -2.759015031279    3.714378845592   -1.047984191429
 O   -3.641645031279    4.930368845592   -1.148824191429
 O   -2.294955031279    2.924828845592   -2.289404191429
 O   -1.403395031279    3.955948845592   -0.057414191429
 O   -3.301675031279    2.590148845592    0.100905808571
 C   -0.466295031279    4.945738845592   -0.532254191429
 H   -0.960425031279    5.924648845592   -0.595324191429
 H   -0.079265031279    4.657838845592   -1.520594191429
 H    0.353604968721    4.984258845592    0.193755808571
 C   -4.577035031279    1.981738845592   -0.193254191429
 H   -4.529745031279    1.448268845592   -1.153834191429
 H   -5.356705031279    2.754238845592   -0.233004191429
 H   -4.788485031279    1.274868845592    0.617165808571
LI   -1.648035031279    2.420258845592    1.112635808571
LI   -1.233835031279    1.459518845592   -2.207284191429
 P    2.920769867247   -3.932138440601    1.109427427969
 O    1.565149116933   -4.173713076714    0.118855843425
 O    3.463430005867   -2.807916558180   -0.039468114123
 O    3.803398838898   -5.148137627105    1.210260757893
 O    2.456712967377   -3.142588307514    2.350847326080
 C    0.628042465748   -5.163495060038    0.593702878468
 H    1.122161763230   -6.142404196294    0.656771986683
 H    0.241016639176   -4.875592291253    1.582054563696
 H   -0.191863921316   -5.202016113770   -0.132307532801
 C    4.738782171830   -2.199513431701    0.254681469192
 H    4.691502389211   -1.666034747744    1.215267309145
 H    5.518453787614   -2.972010164456    0.294429775118
 H    4.950232523754   -1.492638402814   -0.555743482674
