28

 P   -2.814080395482    3.788511628219   -1.068900239955
 O   -3.696710395482    5.004501628219   -1.169740239955
 O   -2.350020395482    2.998961628219   -2.310320239955
 O   -1.458460395482    4.030081628219   -0.078330239955
 O   -3.356740395482    2.664281628219    0.079989760045
 C   -0.521360395482    5.019871628219   -0.553170239955
 H   -1.015490395482    5.998781628219   -0.616240239955
 H   -0.134330395482    4.731971628219   -1.541510239955
 H    0.298539604518    5.058391628219    0.172839760045
 C   -4.632100395482    2.055871628219   -0.214170239955
 H   -4.584810395482    1.522401628219   -1.174750239955
 H   -5.411770395482    2.828371628219   -0.253920239955
 H   -4.843550395482    1.349001628219    0.596249760045
LI   -1.703100395482    2.494391628219    1.091719760045
LI   -1.288900395482    1.533651628219   -2.228200239955
 P    2.982016633672   -4.014593052273    1.132691422626
 O    1.626395883358   -4.256167688386    0.142119838083
 O    3.524676772291   -2.890371169852   -0.016204119466
 O    3.864645605322   -5.230592238777    1.233524752550
 O    2.517959733802   -3.225042919186    2.374111320737
 C    0.689289232172   -5.245949671710    0.616966873126
 H    1.183408529655   -6.224858807966    0.680035981341
 H    0.302263405600   -4.958046902925    1.605318558353
 H   -0.130617154892   -5.284470725442   -0.109043538143
 C    4.800028938254   -2.281968043373    0.277945463849
 H    4.752749155635   -1.748489359416    1.238531303803
 H    5.579700554038   -3.054464776128    0.317693769776
 H    5.011479290178   -1.575093014486   -0.532479488017
