28

 P   -2.896678441786    3.899710802158   -1.100274312745
 O   -3.779308441786    5.115700802158   -1.201114312745
 O   -2.432618441786    3.110160802158   -2.341694312745
 O   -1.541058441786    4.141280802158   -0.109704312745
 O   -3.439338441786    2.775480802158    0.048615687255
 C   -0.603958441786    5.131070802158   -0.584544312745
 H   -1.098088441786    6.109980802158   -0.647614312745
 H   -0.216928441786    4.843170802158   -1.572884312745
 H    0.215941558214    5.169590802158    0.141465687255
 C   -4.714698441786    2.167070802158   -0.245544312745
 H   -4.667408441786    1.633600802158   -1.206124312745
 H   -5.494368441786    2.939570802158   -0.285294312745
 H   -4.926148441786    1.460200802158    0.564875687255
LI   -1.785698441786    2.605590802158    1.060345687255
LI   -1.371498441786    1.644850802158   -2.259574312745
 P    3.073886783308   -4.138274969781    1.167587414613
 O    1.718266032995   -4.379849605894    0.177015830069
 O    3.616546921928   -3.014053087360    0.018691872520
 O    3.956515754959   -5.354274156285    1.268420744537
 O    2.609829883439   -3.348724836694    2.409007312723
 C    0.781159381809   -5.369631589218    0.651862865112
 H    1.275278679291   -6.348540725474    0.714931973327
 H    0.394133555237   -5.081728820433    1.640214550339
 H   -0.038747005255   -5.408152642950   -0.074147546157
 C    4.891899087891   -2.405649960881    0.312841455836
 H    4.844619305272   -1.872171276924    1.273427295789
 H    5.671570703675   -3.178146693636    0.352589761762
 H    5.103349439815   -1.698774931994   -0.497583496030
