28

 P   -3.006809170192    4.047976367411   -1.142106409798
 O   -3.889439170192    5.263966367411   -1.242946409798
 O   -2.542749170192    3.258426367411   -2.383526409798
 O   -1.651189170192    4.289546367411   -0.151536409798
 O   -3.549469170192    2.923746367411    0.006783590202
 C   -0.714089170192    5.279336367411   -0.626376409798
 H   -1.208219170192    6.258246367411   -0.689446409798
 H   -0.327059170192    4.991436367411   -1.614716409798
 H    0.105810829808    5.317856367411    0.099633590202
 C   -4.824829170192    2.315336367411   -0.287376409798
 H   -4.777539170192    1.781866367411   -1.247956409798
 H   -5.604499170192    3.087836367411   -0.327126409798
 H   -5.036279170192    1.608466367411    0.523043590202
LI   -1.895829170192    2.753856367411    1.018513590202
LI   -1.481629170192    1.793116367411   -2.301406409798
 P    3.196380316157   -4.303184193125    1.214115403928
 O    1.840759565844   -4.544758829238    0.223543819384
 O    3.739040454777   -3.178962310704    0.065219861835
 O    4.079009287808   -5.519183379629    1.314948733852
 O    2.732323416288   -3.513634060038    2.455535302038
 C    0.903652914658   -5.534540812562    0.698390854427
 H    1.397772212141   -6.513449948818    0.761459962642
 H    0.516627088086   -5.246638043777    1.686742539654
 H    0.083746527594   -5.573061866294   -0.027619556842
 C    5.014392620740   -2.570559184225    0.359369445151
 H    4.967112838121   -2.037080500268    1.319955285104
 H    5.794064236524   -3.343055916980    0.399117751077
 H    5.225842972664   -1.863684155338   -0.451055506716
