28

 P   -3.034341852293    4.085042758725   -1.152564434061
 O   -3.916971852293    5.301032758725   -1.253404434061
 O   -2.570281852293    3.295492758725   -2.393984434061
 O   -1.678721852293    4.326612758725   -0.161994434061
 O   -3.577001852293    2.960812758725   -0.003674434061
 C   -0.741621852293    5.316402758725   -0.636834434061
 H   -1.235751852293    6.295312758725   -0.699904434061
 H   -0.354591852293    5.028502758725   -1.625174434061
 H    0.078278147707    5.354922758725    0.089175565939
 C   -4.852361852293    2.352402758725   -0.297834434061
 H   -4.805071852293    1.818932758725   -1.258414434061
 H   -5.632031852293    3.124902758725   -0.337584434061
 H   -5.063811852293    1.645532758725    0.512585565939
LI   -1.923361852293    2.790922758725    1.008055565939
LI   -1.509161852293    1.830182758725   -2.311864434061
 P    3.227003699370   -4.344411498961    1.225747401256
 O    1.871382949056   -4.585986135074    0.235175816712
 O    3.769663837989   -3.220189616540    0.076851859164
 O    4.109632671020   -5.560410685465    1.326580731180
 O    2.762946799500   -3.554861365874    2.467167299367
 C    0.934276297870   -5.575768118398    0.710022851756
 H    1.428395595353   -6.554677254654    0.773091959970
 H    0.547250471298   -5.287865349613    1.698374536983
 H    0.114369910806   -5.614289172130   -0.015987559514
 C    5.045016003952   -2.611786490061    0.371001442479
 H    4.997736221333   -2.078307806104    1.331587282432
 H    5.824687619736   -3.384283222816    0.410749748406
 H    5.256466355876   -1.904911461174   -0.439423509387
