28

 P   -3.282135991206    4.418640280544   -1.246686652431
 O   -4.164765991206    5.634630280544   -1.347526652431
 O   -2.818075991206    3.629090280544   -2.488106652431
 O   -1.926515991206    4.660210280544   -0.256116652431
 O   -3.824795991206    3.294410280544   -0.097796652431
 C   -0.989415991206    5.650000280544   -0.730956652431
 H   -1.483545991206    6.628910280544   -0.794026652431
 H   -0.602385991206    5.362100280544   -1.719296652431
 H   -0.169515991206    5.688520280544   -0.004946652431
 C   -5.100155991206    2.686000280544   -0.391956652431
 H   -5.052865991206    2.152530280544   -1.352536652431
 H   -5.879825991206    3.458500280544   -0.431706652431
 H   -5.311605991206    1.979130280544    0.418463347569
LI   -2.171155991206    3.124520280544    0.913933347569
LI   -1.756955991206    2.163780280544   -2.405986652431
 P    3.502614148280   -4.715457251485    1.330435377215
 O    2.146993397966   -4.957031887598    0.339863792671
 O    4.045274286900   -3.591235369064    0.181539835122
 O    4.385243119931   -5.931456437989    1.431268707139
 O    3.038557248410   -3.925907118398    2.571855275325
 C    1.209886746780   -5.946813870922    0.814710827714
 H    1.704006044263   -6.925723007178    0.877779935929
 H    0.822860920209   -5.658911102137    1.803062512942
 H    0.389980359716   -5.985334924654    0.088700416445
 C    5.320626452863   -2.982832242585    0.475689418438
 H    5.273346670244   -2.449353558628    1.436275258391
 H    6.100298068647   -3.755328975340    0.515437724364
 H    5.532076804787   -2.275957213699   -0.334735533428
