28

 P   -3.309668673307    4.455706671857   -1.257144676694
 O   -4.192298673307    5.671696671857   -1.357984676694
 O   -2.845608673307    3.666156671857   -2.498564676694
 O   -1.954048673307    4.697276671857   -0.266574676694
 O   -3.852328673307    3.331476671857   -0.108254676694
 C   -1.016948673307    5.687066671857   -0.741414676694
 H   -1.511078673307    6.665976671857   -0.804484676694
 H   -0.629918673307    5.399166671857   -1.729754676694
 H   -0.197048673307    5.725586671857   -0.015404676694
 C   -5.127688673307    2.723066671857   -0.402414676694
 H   -5.080398673307    2.189596671857   -1.362994676694
 H   -5.907358673307    3.495566671857   -0.442164676694
 H   -5.339138673307    2.016196671857    0.408005323306
LI   -2.198688673307    3.161586671857    0.903475323306
LI   -1.784488673307    2.200846671857   -2.416444676694
 P    3.533237531492   -4.756684557321    1.342067374544
 O    2.177616781179   -4.998259193434    0.351495790000
 O    4.075897670112   -3.632462674900    0.193171832451
 O    4.415866503143   -5.972683743825    1.442900704468
 O    3.069180631623   -3.967134424234    2.583487272654
 C    1.240510129993   -5.988041176758    0.826342825043
 H    1.734629427475   -6.966950313014    0.889411933258
 H    0.853484303421   -5.700138407973    1.814694510270
 H    0.420603742929   -6.026562230490    0.100332413774
 C    5.351249836075   -3.024059548421    0.487321415767
 H    5.303970053456   -2.490580864464    1.447907255720
 H    6.130921451859   -3.796556281176    0.527069721693
 H    5.562700187999   -2.317184519535   -0.323103536100
