28

 P   -3.337201355409    4.492773063170   -1.267602700957
 O   -4.219831355409    5.708763063170   -1.368442700957
 O   -2.873141355409    3.703223063170   -2.509022700957
 O   -1.981581355409    4.734343063170   -0.277032700957
 O   -3.879861355409    3.368543063170   -0.118712700957
 C   -1.044481355409    5.724133063170   -0.751872700957
 H   -1.538611355409    6.703043063170   -0.814942700957
 H   -0.657451355409    5.436233063170   -1.740212700957
 H   -0.224581355409    5.762653063170   -0.025862700957
 C   -5.155221355409    2.760133063170   -0.412872700957
 H   -5.107931355409    2.226663063170   -1.373452700957
 H   -5.934891355409    3.532633063170   -0.452622700957
 H   -5.366671355409    2.053263063170    0.397547299043
LI   -2.226221355409    3.198653063170    0.893017299043
LI   -1.812021355409    2.237913063170   -2.426902700957
 P    3.563860914705   -4.797911863157    1.353699371872
 O    2.208240164391   -5.039486499270    0.363127787328
 O    4.106521053324   -3.673689980736    0.204803829780
 O    4.446489886355   -6.013911049661    1.454532701796
 O    3.099804014835   -4.008361730070    2.595119269983
 C    1.271133513205   -6.029268482594    0.837974822372
 H    1.765252810688   -7.008177618850    0.901043930586
 H    0.884107686633   -5.741365713809    1.826326507599
 H    0.451227126141   -6.067789536326    0.111964411102
 C    5.381873219287   -3.065286854257    0.498953413095
 H    5.334593436668   -2.531808170300    1.459539253048
 H    6.161544835071   -3.837783587012    0.538701719022
 H    5.593323571211   -2.358411825371   -0.311471538771
