28

 P   -3.392266719612    4.566905845797   -1.288518749484
 O   -4.274896719612    5.782895845797   -1.389358749484
 O   -2.928206719612    3.777355845797   -2.529938749484
 O   -2.036646719612    4.808475845797   -0.297948749484
 O   -3.934926719612    3.442675845797   -0.139628749484
 C   -1.099546719612    5.798265845797   -0.772788749484
 H   -1.593676719612    6.777175845797   -0.835858749484
 H   -0.712516719612    5.510365845797   -1.761128749484
 H   -0.279646719612    5.836785845797   -0.046778749484
 C   -5.210286719612    2.834265845797   -0.433788749484
 H   -5.162996719612    2.300795845797   -1.394368749484
 H   -5.989956719612    3.606765845797   -0.473538749484
 H   -5.421736719612    2.127395845797    0.376631250516
LI   -2.281286719612    3.272785845797    0.872101250516
LI   -1.867086719612    2.312045845797   -2.447818749484
 P    3.625107681129   -4.880366474829    1.376963366530
 O    2.269486930815   -5.121941110942    0.386391781986
 O    4.167767819749   -3.756144592408    0.228067824437
 O    4.507736652780   -6.096365661333    1.477796696454
 O    3.161050781259   -4.090816341742    2.618383264640
 C    1.332380279629   -6.111723094266    0.861238817029
 H    1.826499577112   -7.090632230522    0.924307925244
 H    0.945354453058   -5.823820325481    1.849590502257
 H    0.512473892565   -6.150244147998    0.135228405760
 C    5.443119985712   -3.147741465929    0.522217407753
 H    5.395840203093   -2.614262781972    1.482803247706
 H    6.222791601496   -3.920238198684    0.561965713679
 H    5.654570337636   -2.440866437043   -0.288207544113
