28

 P   -3.419799401713    4.603972237110   -1.298976773747
 O   -4.302429401713    5.819962237110   -1.399816773747
 O   -2.955739401713    3.814422237110   -2.540396773747
 O   -2.064179401713    4.845542237110   -0.308406773747
 O   -3.962459401713    3.479742237110   -0.150086773747
 C   -1.127079401713    5.835332237110   -0.783246773747
 H   -1.621209401713    6.814242237110   -0.846316773747
 H   -0.740049401713    5.547432237110   -1.771586773747
 H   -0.307179401713    5.873852237110   -0.057236773747
 C   -5.237819401713    2.871332237110   -0.444246773747
 H   -5.190529401713    2.337862237110   -1.404826773747
 H   -6.017489401713    3.643832237110   -0.483996773747
 H   -5.449269401713    2.164462237110    0.366173226253
LI   -2.308819401713    3.309852237110    0.861643226253
LI   -1.894619401713    2.349112237110   -2.458276773747
 P    3.655731064341   -4.921593780665    1.388595363858
 O    2.300110314028   -5.163168416778    0.398023779315
 O    4.198391202961   -3.797371898244    0.239699821766
 O    4.538360035992   -6.137592967169    1.489428693782
 O    3.191674164472   -4.132043647578    2.630015261969
 C    1.363003662842   -6.152950400102    0.872870814358
 H    1.857122960324   -7.131859536358    0.935939922573
 H    0.975977836270   -5.865047631317    1.861222499585
 H    0.543097275778   -6.191471453834    0.146860403089
 C    5.473743368924   -3.188968771765    0.533849405081
 H    5.426463586305   -2.655490087808    1.494435245035
 H    6.253414984708   -3.961465504520    0.573597711008
 H    5.685193720848   -2.482093742879   -0.276575546785
