13

 C    0.886638123384    1.975194433841    0.913812873054
 H    0.420018123384    2.967361433841    0.913812873054
 H    1.523787123384    1.870777433841    1.806318873054
 H    1.523787123384    1.870777433841    0.021306873054
 C   -0.211536876616    0.924109433841    0.913812873054
 O   -1.417699876616    1.202163433841    0.913812873054
 N    0.219392123384   -0.376039566159    0.913812873054
 H    1.211569123384   -0.569940566159    0.913812873054
 C   -0.738942876616   -1.474567566159    0.913812873054
 H   -1.383007876616   -1.426088566159    1.804520873054
 H   -1.383007876616   -1.426088566159    0.023104873054
 H   -0.185716876616   -2.422992566159    0.913812873054
RB    0.219392123384   -0.376039566159   -0.786187126946
