13

 C    0.886638123384    1.975194433841    1.397596158788
 H    0.420018123384    2.967361433841    1.397596158788
 H    1.523787123384    1.870777433841    2.290102158788
 H    1.523787123384    1.870777433841    0.505090158788
 C   -0.211536876616    0.924109433841    1.397596158788
 O   -1.417699876616    1.202163433841    1.397596158788
 N    0.219392123384   -0.376039566159    1.397596158788
 H    1.211569123384   -0.569940566159    1.397596158788
 C   -0.738942876616   -1.474567566159    1.397596158788
 H   -1.383007876616   -1.426088566159    2.288304158788
 H   -1.383007876616   -1.426088566159    0.506888158788
 H   -0.185716876616   -2.422992566159    1.397596158788
RB    0.219392123384   -0.376039566159   -1.202403841212
