13

 C    0.886638123384    1.975194433841    2.418916428671
 H    0.420018123384    2.967361433841    2.418916428671
 H    1.523787123384    1.870777433841    3.311422428671
 H    1.523787123384    1.870777433841    1.526410428671
 C   -0.211536876616    0.924109433841    2.418916428671
 O   -1.417699876616    1.202163433841    2.418916428671
 N    0.219392123384   -0.376039566159    2.418916428671
 H    1.211569123384   -0.569940566159    2.418916428671
 C   -0.738942876616   -1.474567566159    2.418916428671
 H   -1.383007876616   -1.426088566159    3.309624428671
 H   -1.383007876616   -1.426088566159    1.528208428671
 H   -0.185716876616   -2.422992566159    2.418916428671
RB    0.219392123384   -0.376039566159   -2.081083571329
