13

 C    0.886638123384    1.975194433841    3.010207111235
 H    0.420018123384    2.967361433841    3.010207111235
 H    1.523787123384    1.870777433841    3.902713111235
 H    1.523787123384    1.870777433841    2.117701111235
 C   -0.211536876616    0.924109433841    3.010207111235
 O   -1.417699876616    1.202163433841    3.010207111235
 N    0.219392123384   -0.376039566159    3.010207111235
 H    1.211569123384   -0.569940566159    3.010207111235
 C   -0.738942876616   -1.474567566159    3.010207111235
 H   -1.383007876616   -1.426088566159    3.900915111235
 H   -1.383007876616   -1.426088566159    2.119499111235
 H   -0.185716876616   -2.422992566159    3.010207111235
RB    0.219392123384   -0.376039566159   -2.589792888765
