13

 C    0.886638123384    1.975194433841    3.493990396970
 H    0.420018123384    2.967361433841    3.493990396970
 H    1.523787123384    1.870777433841    4.386496396970
 H    1.523787123384    1.870777433841    2.601484396970
 C   -0.211536876616    0.924109433841    3.493990396970
 O   -1.417699876616    1.202163433841    3.493990396970
 N    0.219392123384   -0.376039566159    3.493990396970
 H    1.211569123384   -0.569940566159    3.493990396970
 C   -0.738942876616   -1.474567566159    3.493990396970
 H   -1.383007876616   -1.426088566159    4.384698396970
 H   -1.383007876616   -1.426088566159    2.603282396970
 H   -0.185716876616   -2.422992566159    3.493990396970
RB    0.219392123384   -0.376039566159   -3.006009603030
