13

 C    0.886638123384    1.975194433841    4.569064365268
 H    0.420018123384    2.967361433841    4.569064365268
 H    1.523787123384    1.870777433841    5.461570365268
 H    1.523787123384    1.870777433841    3.676558365268
 C   -0.211536876616    0.924109433841    4.569064365268
 O   -1.417699876616    1.202163433841    4.569064365268
 N    0.219392123384   -0.376039566159    4.569064365268
 H    1.211569123384   -0.569940566159    4.569064365268
 C   -0.738942876616   -1.474567566159    4.569064365268
 H   -1.383007876616   -1.426088566159    5.459772365268
 H   -1.383007876616   -1.426088566159    3.678356365268
 H   -0.185716876616   -2.422992566159    4.569064365268
RB    0.219392123384   -0.376039566159   -3.930935634732
