13

 C    0.886638123384    1.975194433841    5.321616143077
 H    0.420018123384    2.967361433841    5.321616143077
 H    1.523787123384    1.870777433841    6.214122143077
 H    1.523787123384    1.870777433841    4.429110143077
 C   -0.211536876616    0.924109433841    5.321616143077
 O   -1.417699876616    1.202163433841    5.321616143077
 N    0.219392123384   -0.376039566159    5.321616143077
 H    1.211569123384   -0.569940566159    5.321616143077
 C   -0.738942876616   -1.474567566159    5.321616143077
 H   -1.383007876616   -1.426088566159    6.212324143077
 H   -1.383007876616   -1.426088566159    4.430908143077
 H   -0.185716876616   -2.422992566159    5.321616143077
RB    0.219392123384   -0.376039566159   -4.578383856923
