10

 C    0.404985474758    1.853565965829    0.793661960406
 H    0.798472474758    2.866694965829    0.793881960406
 C    1.017018474758    0.603457965829    0.793697960406
 H    2.082725474758    0.384730965829    0.793603960406
 N   -0.950102525242    1.584597965829    0.793649960406
 H   -1.695036525242    2.271247965829    0.793903960406
 C   -1.107908525242    0.220557965829    0.793704960406
 H   -2.085532525242   -0.255458034171    0.793578960406
 N    0.071007474758   -0.406037034171    0.793693960406
CS    0.071082837664   -0.405874175332   -0.406306026176
