10

 C    0.404981320949    1.853556989469    0.859802864320
 H    0.798468320949    2.866685989469    0.860022864320
 C    1.017014320949    0.603448989469    0.859838864320
 H    2.082721320949    0.384721989469    0.859744864320
 N   -0.950106679051    1.584588989469    0.859790864320
 H   -1.695040679051    2.271238989469    0.860044864320
 C   -1.107912679051    0.220548989469    0.859845864320
 H   -2.085536679051   -0.255467010531    0.859719864320
 N    0.071003320949   -0.406046010531    0.859834864320
CS    0.071084964097   -0.405869580121   -0.440165121144
