10

 C    0.404973013332    1.853539036751    0.992084672146
 H    0.798460013332    2.866668036751    0.992304672146
 C    1.017006013332    0.603431036751    0.992120672146
 H    2.082713013332    0.384704036751    0.992026672146
 N   -0.950114986668    1.584571036751    0.992072672146
 H   -1.695048986668    2.271221036751    0.992326672146
 C   -1.107920986668    0.220531036751    0.992127672146
 H   -2.085544986668   -0.255484963249    0.992001672146
 N    0.070995013332   -0.406063963249    0.992116672146
CS    0.071089216963   -0.405860389699   -0.507883311082
