10

 C    0.404968859523    1.853530060392    1.058225576060
 H    0.798455859523    2.866659060392    1.058445576060
 C    1.017001859523    0.603422060392    1.058261576060
 H    2.082708859523    0.384695060392    1.058167576060
 N   -0.950119140477    1.584562060392    1.058213576060
 H   -1.695053140477    2.271212060392    1.058467576060
 C   -1.107925140477    0.220522060392    1.058268576060
 H   -2.085549140477   -0.255493939608    1.058142576060
 N    0.070990859523   -0.406072939608    1.058257576060
CS    0.071091343396   -0.405855794488   -0.541742406050
