10

 C    0.404956398096    1.853503131314    1.256648287799
 H    0.798443398096    2.866632131314    1.256868287799
 C    1.016989398096    0.603395131314    1.256684287799
 H    2.082696398096    0.384668131314    1.256590287799
 N   -0.950131601904    1.584535131314    1.256636287799
 H   -1.695065601904    2.271185131314    1.256890287799
 C   -1.107937601904    0.220495131314    1.256691287799
 H   -2.085561601904   -0.255520868686    1.256565287799
 N    0.070978398096   -0.406099868686    1.256680287799
CS    0.071097722696   -0.405842008856   -0.643319690956
