10

 C    0.404952244287    1.853494154955    1.322789191713
 H    0.798439244287    2.866623154955    1.323009191713
 C    1.016985244287    0.603386154955    1.322825191713
 H    2.082692244287    0.384659154955    1.322731191713
 N   -0.950135755713    1.584526154955    1.322777191713
 H   -1.695069755713    2.271176154955    1.323031191713
 C   -1.107941755713    0.220486154955    1.322832191713
 H   -2.085565755713   -0.255529845045    1.322706191713
 N    0.070974244287   -0.406108845045    1.322821191713
CS    0.071099849129   -0.405837413645   -0.677178785924
