10

 C    0.404948090478    1.853485178596    1.388930095626
 H    0.798435090478    2.866614178596    1.389150095626
 C    1.016981090478    0.603377178596    1.388966095626
 H    2.082688090478    0.384650178596    1.388872095626
 N   -0.950139909522    1.584517178596    1.388918095626
 H   -1.695073909522    2.271167178596    1.389172095626
 C   -1.107945909522    0.220477178596    1.388973095626
 H   -2.085569909522   -0.255538821404    1.388847095626
 N    0.070970090478   -0.406117821404    1.388962095626
CS    0.071101975562   -0.405832818434   -0.711037880893
