10

 C    0.404935629051    1.853458249519    1.587352807366
 H    0.798422629051    2.866587249519    1.587572807366
 C    1.016968629051    0.603350249519    1.587388807366
 H    2.082675629051    0.384623249519    1.587294807366
 N   -0.950152370949    1.584490249519    1.587340807366
 H   -1.695086370949    2.271140249519    1.587594807366
 C   -1.107958370949    0.220450249519    1.587395807366
 H   -2.085582370949   -0.255565750481    1.587269807366
 N    0.070957629051   -0.406144750481    1.587384807366
CS    0.071108354862   -0.405819032802   -0.812615165799
