10

 C    0.404923167624    1.853431320441    1.785775519106
 H    0.798410167624    2.866560320441    1.785995519106
 C    1.016956167624    0.603323320441    1.785811519106
 H    2.082663167624    0.384596320441    1.785717519106
 N   -0.950164832376    1.584463320441    1.785763519106
 H   -1.695098832376    2.271113320441    1.786017519106
 C   -1.107970832376    0.220423320441    1.785818519106
 H   -2.085594832376   -0.255592679559    1.785692519106
 N    0.070945167624   -0.406171679559    1.785807519106
CS    0.071114734161   -0.405805247169   -0.914192450704
