10

 C    0.404914860006    1.853413367723    1.918057326932
 H    0.798401860006    2.866542367723    1.918277326932
 C    1.016947860006    0.603305367723    1.918093326932
 H    2.082654860006    0.384578367723    1.917999326932
 N   -0.950173139994    1.584445367723    1.918045326932
 H   -1.695107139994    2.271095367723    1.918299326932
 C   -1.107979139994    0.220405367723    1.918100326932
 H   -2.085603139994   -0.255610632277    1.917974326932
 N    0.070936860006   -0.406189632277    1.918089326932
CS    0.071118987027   -0.405796056748   -0.981910640641
