10

 C    0.404894090962    1.853368485927    2.248761846499
 H    0.798381090962    2.866497485927    2.248981846499
 C    1.016927090962    0.603260485927    2.248797846499
 H    2.082634090962    0.384533485927    2.248703846499
 N   -0.950193909038    1.584400485927    2.248749846499
 H   -1.695127909038    2.271050485927    2.249003846499
 C   -1.107999909038    0.220360485927    2.248804846499
 H   -2.085623909038   -0.255655514073    2.248678846499
 N    0.070916090962   -0.406234514073    2.248793846499
CS    0.071129619193   -0.405773080694   -1.151206115484
