10

 C    0.404889937153    1.853359509568    2.314902750412
 H    0.798376937153    2.866488509568    2.315122750412
 C    1.016922937153    0.603251509568    2.314938750412
 H    2.082629937153    0.384524509568    2.314844750412
 N   -0.950198062847    1.584391509568    2.314890750412
 H   -1.695132062847    2.271041509568    2.315144750412
 C   -1.108004062847    0.220351509568    2.314945750412
 H   -2.085628062847   -0.255664490432    2.314819750412
 N    0.070911937153   -0.406243490432    2.314934750412
CS    0.071131745626   -0.405768485483   -1.185065210453
