10

 C    0.404881629535    1.853341556850    2.447184558239
 H    0.798368629535    2.866470556850    2.447404558239
 C    1.016914629535    0.603233556850    2.447220558239
 H    2.082621629535    0.384506556850    2.447126558239
 N   -0.950206370465    1.584373556850    2.447172558239
 H   -1.695140370465    2.271023556850    2.447426558239
 C   -1.108012370465    0.220333556850    2.447227558239
 H   -2.085636370465   -0.255682443150    2.447101558239
 N    0.070903629535   -0.406261443150    2.447216558239
CS    0.071135998493   -0.405759295061   -1.252783400390
