10

 C    0.404865014299    1.853305651413    2.711748173892
 H    0.798352014299    2.866434651413    2.711968173892
 C    1.016898014299    0.603197651413    2.711784173892
 H    2.082605014299    0.384470651413    2.711690173892
 N   -0.950222985701    1.584337651413    2.711736173892
 H   -1.695156985701    2.270987651413    2.711990173892
 C   -1.108028985701    0.220297651413    2.711791173892
 H   -2.085652985701   -0.255718348587    2.711665173892
 N    0.070887014299   -0.406297348587    2.711780173892
CS    0.071144504225   -0.405740914218   -1.388219780264
