10

 C    0.404856706681    1.853287698695    2.844029981719
 H    0.798343706681    2.866416698695    2.844249981719
 C    1.016889706681    0.603179698695    2.844065981719
 H    2.082596706681    0.384452698695    2.843971981719
 N   -0.950231293319    1.584319698695    2.844017981719
 H   -1.695165293319    2.270969698695    2.844271981719
 C   -1.108037293319    0.220279698695    2.844072981719
 H   -2.085661293319   -0.255736301305    2.843946981719
 N    0.070878706681   -0.406315301305    2.844061981719
CS    0.071148757092   -0.405731723796   -1.455937970201
