10

 C    0.404844245254    1.853260769617    3.042452693458
 H    0.798331245254    2.866389769617    3.042672693458
 C    1.016877245254    0.603152769617    3.042488693458
 H    2.082584245254    0.384425769617    3.042394693458
 N   -0.950243754746    1.584292769617    3.042440693458
 H   -1.695177754746    2.270942769617    3.042694693458
 C   -1.108049754746    0.220252769617    3.042495693458
 H   -2.085673754746   -0.255763230383    3.042369693458
 N    0.070866245254   -0.406342230383    3.042484693458
CS    0.071155136391   -0.405717938164   -1.557515255107
