10

 C    0.404840091445    1.853251793258    3.108593597372
 H    0.798327091445    2.866380793258    3.108813597372
 C    1.016873091445    0.603143793258    3.108629597372
 H    2.082580091445    0.384416793258    3.108535597372
 N   -0.950247908555    1.584283793258    3.108581597372
 H   -1.695181908555    2.270933793258    3.108835597372
 C   -1.108053908555    0.220243793258    3.108636597372
 H   -2.085677908555   -0.255772206742    3.108510597372
 N    0.070862091445   -0.406351206742    3.108625597372
CS    0.071157262824   -0.405713342953   -1.591374350076
