10

 C    0.404831783828    1.853233840540    3.240875405198
 H    0.798318783828    2.866362840540    3.241095405198
 C    1.016864783828    0.603125840540    3.240911405198
 H    2.082571783828    0.384398840540    3.240817405198
 N   -0.950256216172    1.584265840540    3.240863405198
 H   -1.695190216172    2.270915840540    3.241117405198
 C   -1.108062216172    0.220225840540    3.240918405198
 H   -2.085686216172   -0.255790159460    3.240792405198
 N    0.070853783828   -0.406369159460    3.240907405198
CS    0.071161515691   -0.405704152531   -1.659092540013
