10

 C    0.404827630019    1.853224864181    3.307016309112
 H    0.798314630019    2.866353864181    3.307236309112
 C    1.016860630019    0.603116864181    3.307052309112
 H    2.082567630019    0.384389864181    3.306958309112
 N   -0.950260369981    1.584256864181    3.307004309112
 H   -1.695194369981    2.270906864181    3.307258309112
 C   -1.108066369981    0.220216864181    3.307059309112
 H   -2.085690369981   -0.255799135819    3.306933309112
 N    0.070849630019   -0.406378135819    3.307048309112
CS    0.071163642124   -0.405699557321   -1.692951634981
