10

 C    0.404823476210    1.853215887821    3.373157213025
 H    0.798310476210    2.866344887821    3.373377213025
 C    1.016856476210    0.603107887821    3.373193213025
 H    2.082563476210    0.384380887821    3.373099213025
 N   -0.950264523790    1.584247887821    3.373145213025
 H   -1.695198523790    2.270897887821    3.373399213025
 C   -1.108070523790    0.220207887821    3.373200213025
 H   -2.085694523790   -0.255808112179    3.373074213025
 N    0.070845476210   -0.406387112179    3.373189213025
CS    0.071165768557   -0.405694962110   -1.726810729950
