10

 C    0.404794399547    1.853153053307    3.836143540418
 H    0.798281399547    2.866282053307    3.836363540418
 C    1.016827399547    0.603045053307    3.836179540418
 H    2.082534399547    0.384318053307    3.836085540418
 N   -0.950293600453    1.584185053307    3.836131540418
 H   -1.695227600453    2.270835053307    3.836385540418
 C   -1.108099600453    0.220145053307    3.836186540418
 H   -2.085723600453   -0.255870946693    3.836060540418
 N    0.070816399547   -0.406449946693    3.836175540418
CS    0.071180653589   -0.405662795634   -1.963824394730
