10

 C    0.404781938120    1.853126124230    4.034566252158
 H    0.798268938120    2.866255124230    4.034786252158
 C    1.016814938120    0.603018124230    4.034602252158
 H    2.082521938120    0.384291124230    4.034508252158
 N   -0.950306061880    1.584158124230    4.034554252158
 H   -1.695240061880    2.270808124230    4.034808252158
 C   -1.108112061880    0.220118124230    4.034609252158
 H   -2.085736061880   -0.255897875770    4.034483252158
 N    0.070803938120   -0.406476875770    4.034598252158
CS    0.071187032889   -0.405649010002   -2.065401679635
