10

 C    0.404777784311    1.853117147871    4.100707156071
 H    0.798264784311    2.866246147871    4.100927156071
 C    1.016810784311    0.603009147871    4.100743156071
 H    2.082517784311    0.384282147871    4.100649156071
 N   -0.950310215689    1.584149147871    4.100695156071
 H   -1.695244215689    2.270799147871    4.100949156071
 C   -1.108116215689    0.220109147871    4.100750156071
 H   -2.085740215689   -0.255906852129    4.100624156071
 N    0.070799784311   -0.406485852129    4.100739156071
CS    0.071189159322   -0.405644414791   -2.099260774604
