10

 C    0.404773630502    1.853108171512    4.166848059984
 H    0.798260630502    2.866237171512    4.167068059984
 C    1.016806630502    0.603000171512    4.166884059984
 H    2.082513630502    0.384273171512    4.166790059984
 N   -0.950314369498    1.584140171512    4.166836059984
 H   -1.695248369498    2.270790171512    4.167090059984
 C   -1.108120369498    0.220100171512    4.166891059984
 H   -2.085744369498   -0.255915828488    4.166765059984
 N    0.070795630502   -0.406494828488    4.166880059984
CS    0.071191285755   -0.405639819580   -2.133119869572
