10

 C    0.404769476693    1.853099195152    4.232988963898
 H    0.798256476693    2.866228195152    4.233208963898
 C    1.016802476693    0.602991195152    4.233024963898
 H    2.082509476693    0.384264195152    4.232930963898
 N   -0.950318523307    1.584131195152    4.232976963898
 H   -1.695252523307    2.270781195152    4.233230963898
 C   -1.108124523307    0.220091195152    4.233031963898
 H   -2.085748523307   -0.255924804848    4.232905963898
 N    0.070791476693   -0.406503804848    4.233020963898
CS    0.071193412188   -0.405635224369   -2.166978964541
