10

 C    0.404744553840    1.853045336998    4.629834387378
 H    0.798231553840    2.866174336998    4.630054387378
 C    1.016777553840    0.602937336998    4.629870387378
 H    2.082484553840    0.384210336998    4.629776387378
 N   -0.950343446160    1.584077336998    4.629822387378
 H   -1.695277446160    2.270727336998    4.630076387378
 C   -1.108149446160    0.220037336998    4.629877387378
 H   -2.085773446160   -0.255978663002    4.629751387378
 N    0.070766553840   -0.406557663002    4.629866387378
CS    0.071206170787   -0.405607653104   -2.370133534352
