10

 C    0.404727938604    1.853009431561    4.894398003031
 H    0.798214938604    2.866138431561    4.894618003031
 C    1.016760938604    0.602901431561    4.894434003031
 H    2.082467938604    0.384174431561    4.894340003031
 N   -0.950360061396    1.584041431561    4.894386003031
 H   -1.695294061396    2.270691431561    4.894640003031
 C   -1.108166061396    0.220001431561    4.894441003031
 H   -2.085790061396   -0.256014568439    4.894315003031
 N    0.070749938604   -0.406593568439    4.894430003031
CS    0.071214676520   -0.405589272261   -2.505569914227
