10

 C    0.404723784795    1.853000455202    4.960538906944
 H    0.798210784795    2.866129455202    4.960758906944
 C    1.016756784795    0.602892455202    4.960574906944
 H    2.082463784795    0.384165455202    4.960480906944
 N   -0.950364215205    1.584032455202    4.960526906944
 H   -1.695298215205    2.270682455202    4.960780906944
 C   -1.108170215205    0.219992455202    4.960581906944
 H   -2.085794215205   -0.256023544798    4.960455906944
 N    0.070745784795   -0.406602544798    4.960570906944
CS    0.071216802953   -0.405584677050   -2.539429009195
