10

 C    0.404707169559    1.852964549765    5.225102522597
 H    0.798194169559    2.866093549765    5.225322522597
 C    1.016740169559    0.602856549765    5.225138522597
 H    2.082447169559    0.384129549765    5.225044522597
 N   -0.950380830441    1.583996549765    5.225090522597
 H   -1.695314830441    2.270646549765    5.225344522597
 C   -1.108186830441    0.219956549765    5.225145522597
 H   -2.085810830441   -0.256059450235    5.225019522597
 N    0.070729169559   -0.406638450235    5.225134522597
CS    0.071225308686   -0.405566296207   -2.674865389069
