10

 C    0.404694708132    1.852937620688    5.423525234337
 H    0.798181708132    2.866066620688    5.423745234337
 C    1.016727708132    0.602829620688    5.423561234337
 H    2.082434708132    0.384102620688    5.423467234337
 N   -0.950393291868    1.583969620688    5.423513234337
 H   -1.695327291868    2.270619620688    5.423767234337
 C   -1.108199291868    0.219929620688    5.423568234337
 H   -2.085823291868   -0.256086379312    5.423442234337
 N    0.070716708132   -0.406665379312    5.423557234337
CS    0.071231687985   -0.405552510575   -2.776442673975
