10

 C    0.404690554324    1.852928644328    5.489666138250
 H    0.798177554324    2.866057644328    5.489886138250
 C    1.016723554324    0.602820644328    5.489702138250
 H    2.082430554324    0.384093644328    5.489608138250
 N   -0.950397445676    1.583960644328    5.489654138250
 H   -1.695331445676    2.270610644328    5.489908138250
 C   -1.108203445676    0.219920644328    5.489709138250
 H   -2.085827445676   -0.256095355672    5.489583138250
 N    0.070712554324   -0.406674355672    5.489698138250
CS    0.071233814418   -0.405547915364   -2.810301768944
