10

 C    0.404686400515    1.852919667969    5.555807042164
 H    0.798173400515    2.866048667969    5.556027042164
 C    1.016719400515    0.602811667969    5.555843042164
 H    2.082426400515    0.384084667969    5.555749042164
 N   -0.950401599485    1.583951667969    5.555795042164
 H   -1.695335599485    2.270601667969    5.556049042164
 C   -1.108207599485    0.219911667969    5.555850042164
 H   -2.085831599485   -0.256104332031    5.555724042164
 N    0.070708400515   -0.406683332031    5.555839042164
CS    0.071235940851   -0.405543320153   -2.844160863912
