10

 C    0.404661477661    1.852865809814    5.952652465643
 H    0.798148477661    2.865994809814    5.952872465643
 C    1.016694477661    0.602757809814    5.952688465643
 H    2.082401477661    0.384030809814    5.952594465643
 N   -0.950426522339    1.583897809814    5.952640465643
 H   -1.695360522339    2.270547809814    5.952894465643
 C   -1.108232522339    0.219857809814    5.952695465643
 H   -2.085856522339   -0.256158190186    5.952569465643
 N    0.070683477661   -0.406737190186    5.952684465643
CS    0.071248699450   -0.405515748888   -3.047315433724
