10

 C    0.404653170043    1.852847857096    6.084934273470
 H    0.798140170043    2.865976857096    6.085154273470
 C    1.016686170043    0.602739857096    6.084970273470
 H    2.082393170043    0.384012857096    6.084876273470
 N   -0.950434829957    1.583879857096    6.084922273470
 H   -1.695368829957    2.270529857096    6.085176273470
 C   -1.108240829957    0.219839857096    6.084977273470
 H   -2.085864829957   -0.256176142904    6.084851273470
 N    0.070675170043   -0.406755142904    6.084966273470
CS    0.071252952317   -0.405506558466   -3.115033623661
