10

 C    0.404640708616    1.852820928019    6.283356985210
 H    0.798127708616    2.865949928019    6.283576985210
 C    1.016673708616    0.602712928019    6.283392985210
 H    2.082380708616    0.383985928019    6.283298985210
 N   -0.950447291384    1.583852928019    6.283344985210
 H   -1.695381291384    2.270502928019    6.283598985210
 C   -1.108253291384    0.219812928019    6.283399985210
 H   -2.085877291384   -0.256203071981    6.283273985210
 N    0.070662708616   -0.406782071981    6.283388985210
CS    0.071259331616   -0.405492772834   -3.216610908566
