10

 C    0.404628247189    1.852793998941    6.481779696950
 H    0.798115247189    2.865922998941    6.481999696950
 C    1.016661247189    0.602685998941    6.481815696950
 H    2.082368247189    0.383958998941    6.481721696950
 N   -0.950459752811    1.583825998941    6.481767696950
 H   -1.695393752811    2.270475998941    6.482021696950
 C   -1.108265752811    0.219785998941    6.481822696950
 H   -2.085889752811   -0.256230001059    6.481696696950
 N    0.070650247189   -0.406809001059    6.481811696950
CS    0.071265710916   -0.405478987201   -3.318188193472
