10

 C    0.404624093380    1.852785022582    6.547920600863
 H    0.798111093380    2.865914022582    6.548140600863
 C    1.016657093380    0.602677022582    6.547956600863
 H    2.082364093380    0.383950022582    6.547862600863
 N   -0.950463906620    1.583817022582    6.547908600863
 H   -1.695397906620    2.270467022582    6.548162600863
 C   -1.108269906620    0.219777022582    6.547963600863
 H   -2.085893906620   -0.256238977418    6.547837600863
 N    0.070646093380   -0.406817977418    6.547952600863
CS    0.071267837349   -0.405474391991   -3.352047288441
