14

 P   -0.369186596829    0.279651015261   -0.002930116824
 O   -0.956186596829    1.329651015261    0.952069883176
 O   -0.635186596829    0.327651015261   -1.514930116824
 O    1.293813403171    0.105651015261    0.284069883176
 O   -0.684186596829   -1.278348984739    0.589069883176
 C    2.030813403171    1.270651015261   -0.092930116824
 H    1.699813403171    2.153651015261    0.483069883176
 H    1.915813403171    1.481651015261   -1.170930116824
 H    3.090813403171    1.068651015261    0.127069883176
 C   -2.075186596829   -1.601348984739    0.539069883176
 H   -2.453186596829   -1.574348984739   -0.498930116824
 H   -2.668186596829   -0.902348984739    1.155069883176
 H   -2.185186596829   -2.621348984739    0.939069883176
NA    1.229909745484   -0.524037065468   -0.490145360489
