14

 P   -0.368193875053    0.289433007291    0.009097055954
 O   -0.955193875053    1.339433007291    0.964097055954
 O   -0.634193875053    0.337433007291   -1.502902944046
 O    1.294806124947    0.115433007291    0.296097055954
 O   -0.683193875053   -1.268566992709    0.601097055954
 C    2.031806124947    1.280433007291   -0.080902944046
 H    1.700806124947    2.163433007291    0.495097055954
 H    1.916806124947    1.491433007291   -1.158902944046
 H    3.091806124947    1.078433007291    0.139097055954
 C   -2.074193875053   -1.591566992709    0.551097055954
 H   -2.452193875053   -1.564566992709   -0.486902944046
 H   -2.667193875053   -0.892566992709    1.167097055954
 H   -2.184193875053   -2.611566992709    0.951097055954
NA    1.224512101491   -0.577223881510   -0.555539712077
