14

 P   -0.365215709723    0.318778983382    0.045178574288
 O   -0.952215709723    1.368778983382    1.000178574288
 O   -0.631215709723    0.366778983382   -1.466821425712
 O    1.297784290277    0.144778983382    0.332178574288
 O   -0.680215709723   -1.239221016618    0.637178574288
 C    2.034784290277    1.309778983382   -0.044821425712
 H    1.703784290277    2.192778983382    0.531178574288
 H    1.919784290277    1.520778983382   -1.122821425712
 H    3.094784290277    1.107778983382    0.175178574288
 C   -2.071215709723   -1.562221016618    0.587178574288
 H   -2.449215709723   -1.535221016618   -0.450821425712
 H   -2.664215709723   -0.863221016618    1.203178574288
 H   -2.181215709723   -2.582221016618    0.987178574288
NA    1.208319169515   -0.736784329638   -0.751722766842
