14

 P   -0.362237544393    0.348124959472    0.081260092622
 O   -0.949237544393    1.398124959472    1.036260092622
 O   -0.628237544393    0.396124959472   -1.430739907378
 O    1.300762455607    0.174124959472    0.368260092622
 O   -0.677237544393   -1.209875040528    0.673260092622
 C    2.037762455607    1.339124959472   -0.008739907378
 H    1.706762455607    2.222124959472    0.567260092622
 H    1.922762455607    1.550124959472   -1.086739907378
 H    3.097762455607    1.137124959472    0.211260092622
 C   -2.068237544393   -1.532875040528    0.623260092622
 H   -2.446237544393   -1.505875040528   -0.414739907378
 H   -2.661237544393   -0.833875040528    1.239260092622
 H   -2.178237544393   -2.552875040528    1.023260092622
NA    1.192126237539   -0.896344777766   -0.947905821608
