14

 P   -0.361244822617    0.357906951503    0.093287265400
 O   -0.948244822617    1.407906951503    1.048287265400
 O   -0.627244822617    0.405906951503   -1.418712734600
 O    1.301755177383    0.183906951503    0.380287265400
 O   -0.676244822617   -1.200093048497    0.685287265400
 C    2.038755177383    1.348906951503    0.003287265400
 H    1.707755177383    2.231906951503    0.579287265400
 H    1.923755177383    1.559906951503   -1.074712734600
 H    3.098755177383    1.146906951503    0.223287265400
 C   -2.067244822617   -1.523093048497    0.635287265400
 H   -2.445244822617   -1.496093048497   -0.402712734600
 H   -2.660244822617   -0.824093048497    1.251287265400
 H   -2.177244822617   -2.543093048497    1.035287265400
NA    1.186728593546   -0.949531593809   -1.013300173196
