14

 P   -0.359259379063    0.377470935563    0.117341610956
 O   -0.946259379063    1.427470935563    1.072341610956
 O   -0.625259379063    0.425470935563   -1.394658389044
 O    1.303740620937    0.203470935563    0.404341610956
 O   -0.674259379063   -1.180529064437    0.709341610956
 C    2.040740620937    1.368470935563    0.027341610956
 H    1.709740620937    2.251470935563    0.603341610956
 H    1.925740620937    1.579470935563   -1.050658389044
 H    3.100740620937    1.166470935563    0.247341610956
 C   -2.065259379063   -1.503529064437    0.659341610956
 H   -2.443259379063   -1.476529064437   -0.378658389044
 H   -2.658259379063   -0.804529064437    1.275341610956
 H   -2.175259379063   -2.523529064437    1.059341610956
NA    1.175933305562   -1.055905225894   -1.144088876373
