14

 P   -0.358266657287    0.387252927593    0.129368783734
 O   -0.945266657287    1.437252927593    1.084368783734
 O   -0.624266657287    0.435252927593   -1.382631216266
 O    1.304733342713    0.213252927593    0.416368783734
 O   -0.673266657287   -1.170747072407    0.721368783734
 C    2.041733342713    1.378252927593    0.039368783734
 H    1.710733342713    2.261252927593    0.615368783734
 H    1.926733342713    1.589252927593   -1.038631216266
 H    3.101733342713    1.176252927593    0.259368783734
 C   -2.064266657287   -1.493747072407    0.671368783734
 H   -2.442266657287   -1.466747072407   -0.366631216266
 H   -2.657266657287   -0.794747072407    1.287368783734
 H   -2.174266657287   -2.513747072407    1.071368783734
NA    1.170535661570   -1.109092041937   -1.209483227962
