14

 P   -0.357273935510    0.397034919623    0.141395956512
 O   -0.944273935510    1.447034919623    1.096395956512
 O   -0.623273935510    0.445034919623   -1.370604043488
 O    1.305726064490    0.223034919623    0.428395956512
 O   -0.672273935510   -1.160965080377    0.733395956512
 C    2.042726064490    1.388034919623    0.051395956512
 H    1.711726064490    2.271034919623    0.627395956512
 H    1.927726064490    1.599034919623   -1.026604043488
 H    3.102726064490    1.186034919623    0.271395956512
 C   -2.063273935510   -1.483965080377    0.683395956512
 H   -2.441273935510   -1.456965080377   -0.354604043488
 H   -2.656273935510   -0.784965080377    1.299395956512
 H   -2.173273935510   -2.503965080377    1.083395956512
NA    1.165138017578   -1.162278857980   -1.274877579550
