14

 P   -0.355288491957    0.416598903684    0.165450302068
 O   -0.942288491957    1.466598903684    1.120450302068
 O   -0.621288491957    0.464598903684   -1.346549697932
 O    1.307711508043    0.242598903684    0.452450302068
 O   -0.670288491957   -1.141401096316    0.757450302068
 C    2.044711508043    1.407598903684    0.075450302068
 H    1.713711508043    2.290598903684    0.651450302068
 H    1.929711508043    1.618598903684   -1.002549697932
 H    3.104711508043    1.205598903684    0.295450302068
 C   -2.061288491957   -1.464401096316    0.707450302068
 H   -2.439288491957   -1.437401096316   -0.330549697932
 H   -2.654288491957   -0.765401096316    1.323450302068
 H   -2.171288491957   -2.484401096316    1.107450302068
NA    1.154342729594   -1.268652490065   -1.405666282727
