14

 P   -0.352310326627    0.445944879774    0.201531820402
 O   -0.939310326627    1.495944879774    1.156531820402
 O   -0.618310326627    0.493944879774   -1.310468179598
 O    1.310689673373    0.271944879774    0.488531820402
 O   -0.667310326627   -1.112055120226    0.793531820402
 C    2.047689673373    1.436944879774    0.111531820402
 H    1.716689673373    2.319944879774    0.687531820402
 H    1.932689673373    1.647944879774   -0.966468179598
 H    3.107689673373    1.234944879774    0.331531820402
 C   -2.058310326627   -1.435055120226    0.743531820402
 H   -2.436310326627   -1.408055120226   -0.294468179598
 H   -2.651310326627   -0.736055120226    1.359531820402
 H   -2.168310326627   -2.455055120226    1.143531820402
NA    1.138149797617   -1.428212938193   -1.601849337492
