14

 P   -0.347346717744    0.494854839925    0.261667684292
 O   -0.934346717744    1.544854839925    1.216667684292
 O   -0.613346717744    0.542854839925   -1.250332315708
 O    1.315653282256    0.320854839925    0.548667684292
 O   -0.662346717744   -1.063145160075    0.853667684292
 C    2.052653282256    1.485854839925    0.171667684292
 H    1.721653282256    2.368854839925    0.747667684292
 H    1.937653282256    1.696854839925   -0.906332315708
 H    3.112653282256    1.283854839925    0.391667684292
 C   -2.053346717744   -1.386145160075    0.803667684292
 H   -2.431346717744   -1.359145160075   -0.234332315708
 H   -2.646346717744   -0.687145160075    1.419667684292
 H   -2.163346717744   -2.406145160075    1.203667684292
NA    1.111161577657   -1.694147018406   -1.928821095434
