14

 P   -0.346353995968    0.504636831955    0.273694857070
 O   -0.933353995968    1.554636831955    1.228694857070
 O   -0.612353995968    0.552636831955   -1.238305142930
 O    1.316646004032    0.330636831955    0.560694857070
 O   -0.661353995968   -1.053363168045    0.865694857070
 C    2.053646004032    1.495636831955    0.183694857070
 H    1.722646004032    2.378636831955    0.759694857070
 H    1.938646004032    1.706636831955   -0.894305142930
 H    3.113646004032    1.293636831955    0.403694857070
 C   -2.052353995968   -1.376363168045    0.815694857070
 H   -2.430353995968   -1.349363168045   -0.222305142930
 H   -2.645353995968   -0.677363168045    1.431694857070
 H   -2.162353995968   -2.396363168045    1.215694857070
NA    1.105763933665   -1.747333834449   -1.994215447023
