14

 P   -0.345361274191    0.514418823986    0.285722029848
 O   -0.932361274191    1.564418823986    1.240722029848
 O   -0.611361274191    0.562418823986   -1.226277970152
 O    1.317638725809    0.340418823986    0.572722029848
 O   -0.660361274191   -1.043581176014    0.877722029848
 C    2.054638725809    1.505418823986    0.195722029848
 H    1.723638725809    2.388418823986    0.771722029848
 H    1.939638725809    1.716418823986   -0.882277970152
 H    3.114638725809    1.303418823986    0.415722029848
 C   -2.051361274191   -1.366581176014    0.827722029848
 H   -2.429361274191   -1.339581176014   -0.210277970152
 H   -2.644361274191   -0.667581176014    1.443722029848
 H   -2.161361274191   -2.386581176014    1.227722029848
NA    1.100366289672   -1.800520650492   -2.059609798611
