14

 P   -0.344368552415    0.524200816016    0.297749202626
 O   -0.931368552415    1.574200816016    1.252749202626
 O   -0.610368552415    0.572200816016   -1.214250797374
 O    1.318631447585    0.350200816016    0.584749202626
 O   -0.659368552415   -1.033799183984    0.889749202626
 C    2.055631447585    1.515200816016    0.207749202626
 H    1.724631447585    2.398200816016    0.783749202626
 H    1.940631447585    1.726200816016   -0.870250797374
 H    3.115631447585    1.313200816016    0.427749202626
 C   -2.050368552415   -1.356799183984    0.839749202626
 H   -2.428368552415   -1.329799183984   -0.198250797374
 H   -2.643368552415   -0.657799183984    1.455749202626
 H   -2.160368552415   -2.376799183984    1.239749202626
NA    1.094968645680   -1.853707466534   -2.125004150200
