14

 P   -0.342383108861    0.543764800076    0.321803548182
 O   -0.929383108861    1.593764800076    1.276803548182
 O   -0.608383108861    0.591764800076   -1.190196451818
 O    1.320616891139    0.369764800076    0.608803548182
 O   -0.657383108861   -1.014235199924    0.913803548182
 C    2.057616891139    1.534764800076    0.231803548182
 H    1.726616891139    2.417764800076    0.807803548182
 H    1.942616891139    1.745764800076   -0.846196451818
 H    3.117616891139    1.332764800076    0.451803548182
 C   -2.048383108861   -1.337235199924    0.863803548182
 H   -2.426383108861   -1.310235199924   -0.174196451818
 H   -2.641383108861   -0.638235199924    1.479803548182
 H   -2.158383108861   -2.357235199924    1.263803548182
NA    1.084173357696   -1.960081098620   -2.255792853377
