14

 P   -0.338412221755    0.582892768197    0.369912239294
 O   -0.925412221755    1.632892768197    1.324912239294
 O   -0.604412221755    0.630892768197   -1.142087760706
 O    1.324587778245    0.408892768197    0.656912239294
 O   -0.653412221755   -0.975107231803    0.961912239294
 C    2.061587778245    1.573892768197    0.279912239294
 H    1.730587778245    2.456892768197    0.855912239294
 H    1.946587778245    1.784892768197   -0.798087760706
 H    3.121587778245    1.371892768197    0.499912239294
 C   -2.044412221755   -1.298107231803    0.911912239294
 H   -2.422412221755   -1.271107231803   -0.126087760706
 H   -2.637412221755   -0.599107231803    1.527912239294
 H   -2.154412221755   -2.318107231803    1.311912239294
NA    1.062582781727   -2.172828362790   -2.517370259730
