14

 P   -0.335434056425    0.612238744287    0.405993757628
 O   -0.922434056425    1.662238744287    1.360993757628
 O   -0.601434056425    0.660238744287   -1.106006242372
 O    1.327565943575    0.438238744287    0.692993757628
 O   -0.650434056425   -0.945761255713    0.997993757628
 C    2.064565943575    1.603238744287    0.315993757628
 H    1.733565943575    2.486238744287    0.891993757628
 H    1.949565943575    1.814238744287   -0.762006242372
 H    3.124565943575    1.401238744287    0.535993757628
 C   -2.041434056425   -1.268761255713    0.947993757628
 H   -2.419434056425   -1.241761255713   -0.090006242372
 H   -2.634434056425   -0.569761255713    1.563993757628
 H   -2.151434056425   -2.288761255713    1.347993757628
NA    1.046389849751   -2.332388810918   -2.713553314496
