14

 P   -0.334441334649    0.622020736318    0.418020930406
 O   -0.921441334649    1.672020736318    1.373020930406
 O   -0.600441334649    0.670020736318   -1.093979069594
 O    1.328558665351    0.448020736318    0.705020930406
 O   -0.649441334649   -0.935979263682    1.010020930406
 C    2.065558665351    1.613020736318    0.328020930406
 H    1.734558665351    2.496020736318    0.904020930406
 H    1.950558665351    1.824020736318   -0.749979069594
 H    3.125558665351    1.411020736318    0.548020930406
 C   -2.040441334649   -1.258979263682    0.960020930406
 H   -2.418441334649   -1.231979263682   -0.077979069594
 H   -2.633441334649   -0.559979263682    1.576020930406
 H   -2.150441334649   -2.278979263682    1.360020930406
NA    1.040992205759   -2.385575626961   -2.778947666084
