14

 P   -0.332455891096    0.641584720378    0.442075275962
 O   -0.919455891096    1.691584720378    1.397075275962
 O   -0.598455891096    0.689584720378   -1.069924724038
 O    1.330544108904    0.467584720378    0.729075275962
 O   -0.647455891096   -0.916415279622    1.034075275962
 C    2.067544108904    1.632584720378    0.352075275962
 H    1.736544108904    2.515584720378    0.928075275962
 H    1.952544108904    1.843584720378   -0.725924724038
 H    3.127544108904    1.430584720378    0.572075275962
 C   -2.038455891096   -1.239415279622    0.984075275962
 H   -2.416455891096   -1.212415279622   -0.053924724038
 H   -2.631455891096   -0.540415279622    1.600075275962
 H   -2.148455891096   -2.259415279622    1.384075275962
NA    1.030196917775   -2.491949259046   -2.909736369261
