14

 P   -0.330470447542    0.661148704438    0.466129621518
 O   -0.917470447542    1.711148704438    1.421129621518
 O   -0.596470447542    0.709148704438   -1.045870378482
 O    1.332529552458    0.487148704438    0.753129621518
 O   -0.645470447542   -0.896851295562    1.058129621518
 C    2.069529552458    1.652148704438    0.376129621518
 H    1.738529552458    2.535148704438    0.952129621518
 H    1.954529552458    1.863148704438   -0.701870378482
 H    3.129529552458    1.450148704438    0.596129621518
 C   -2.036470447542   -1.219851295562    1.008129621518
 H   -2.414470447542   -1.192851295562   -0.029870378482
 H   -2.629470447542   -0.520851295562    1.624129621518
 H   -2.146470447542   -2.239851295562    1.408129621518
NA    1.019401629790   -2.598322891132   -3.040525072438
