14

 P   -0.319550508000    0.768750616770    0.598428522076
 O   -0.906550508000    1.818750616770    1.553428522076
 O   -0.585550508000    0.816750616770   -0.913571477924
 O    1.343449492000    0.594750616770    0.885428522076
 O   -0.634550508000   -0.789249383230    1.190428522076
 C    2.080449492000    1.759750616770    0.508428522076
 H    1.749449492000    2.642750616770    1.084428522076
 H    1.965449492000    1.970750616770   -0.569571477924
 H    3.140449492000    1.557750616770    0.728428522076
 C   -2.025550508000   -1.112249383230    1.140428522076
 H   -2.403550508000   -1.085249383230    0.102428522076
 H   -2.618550508000   -0.413249383230    1.756428522076
 H   -2.135550508000   -2.132249383230    1.540428522076
NA    0.960027545877   -3.183377867601   -3.759862939911
