14

 P   -0.316572342670    0.798096592861    0.634510040410
 O   -0.903572342670    1.848096592861    1.589510040410
 O   -0.582572342670    0.846096592861   -0.877489959590
 O    1.346427657330    0.624096592861    0.921510040410
 O   -0.631572342670   -0.759903407139    1.226510040410
 C    2.083427657330    1.789096592861    0.544510040410
 H    1.752427657330    2.672096592861    1.120510040410
 H    1.968427657330    2.000096592861   -0.533489959590
 H    3.143427657330    1.587096592861    0.764510040410
 C   -2.022572342670   -1.082903407139    1.176510040410
 H   -2.400572342670   -1.055903407139    0.138510040410
 H   -2.615572342670   -0.383903407139    1.792510040410
 H   -2.132572342670   -2.102903407139    1.576510040410
NA    0.943834613901   -3.342938315729   -3.956045994676
