14

 P   -0.313594177341    0.827442568952    0.670591558744
 O   -0.900594177341    1.877442568952    1.625591558744
 O   -0.579594177341    0.875442568952   -0.841408441256
 O    1.349405822659    0.653442568952    0.957591558744
 O   -0.628594177341   -0.730557431048    1.262591558744
 C    2.086405822659    1.818442568952    0.580591558744
 H    1.755405822659    2.701442568952    1.156591558744
 H    1.971405822659    2.029442568952   -0.497408441256
 H    3.146405822659    1.616442568952    0.800591558744
 C   -2.019594177341   -1.053557431048    1.212591558744
 H   -2.397594177341   -1.026557431048    0.174591558744
 H   -2.612594177341   -0.354557431048    1.828591558744
 H   -2.129594177341   -2.073557431048    1.612591558744
NA    0.927641681924   -3.502498763857   -4.152229049442
