14

 P   -0.310616012011    0.856788545042    0.706673077078
 O   -0.897616012011    1.906788545042    1.661673077078
 O   -0.576616012011    0.904788545042   -0.805326922922
 O    1.352383987989    0.682788545042    0.993673077078
 O   -0.625616012011   -0.701211454958    1.298673077078
 C    2.089383987989    1.847788545042    0.616673077078
 H    1.758383987989    2.730788545042    1.192673077078
 H    1.974383987989    2.058788545042   -0.461326922922
 H    3.149383987989    1.645788545042    0.836673077078
 C   -2.016616012011   -1.024211454958    1.248673077078
 H   -2.394616012011   -0.997211454958    0.210673077078
 H   -2.609616012011   -0.325211454958    1.864673077078
 H   -2.126616012011   -2.044211454958    1.648673077078
NA    0.911448749948   -3.662059211985   -4.348412104207
