14

 P   -0.309623290234    0.866570537072    0.718700249856
 O   -0.896623290234    1.916570537072    1.673700249856
 O   -0.575623290234    0.914570537072   -0.793299750144
 O    1.353376709766    0.692570537072    1.005700249856
 O   -0.624623290234   -0.691429462928    1.310700249856
 C    2.090376709766    1.857570537072    0.628700249856
 H    1.759376709766    2.740570537072    1.204700249856
 H    1.975376709766    2.068570537072   -0.449299750144
 H    3.150376709766    1.655570537072    0.848700249856
 C   -2.015623290234   -1.014429462928    1.260700249856
 H   -2.393623290234   -0.987429462928    0.222700249856
 H   -2.608623290234   -0.315429462928    1.876700249856
 H   -2.125623290234   -2.034429462928    1.660700249856
NA    0.906051105956   -3.715246028028   -4.413806455795
