14

 P   -0.306645124904    0.895916513163    0.754781768190
 O   -0.893645124904    1.945916513163    1.709781768190
 O   -0.572645124904    0.943916513163   -0.757218231810
 O    1.356354875096    0.721916513163    1.041781768190
 O   -0.621645124904   -0.662083486837    1.346781768190
 C    2.093354875096    1.886916513163    0.664781768190
 H    1.762354875096    2.769916513163    1.240781768190
 H    1.978354875096    2.097916513163   -0.413218231810
 H    3.153354875096    1.684916513163    0.884781768190
 C   -2.012645124904   -0.985083486837    1.296781768190
 H   -2.390645124904   -0.958083486837    0.258781768190
 H   -2.605645124904   -0.286083486837    1.912781768190
 H   -2.122645124904   -2.005083486837    1.696781768190
NA    0.889858173979   -3.874806476156   -4.609989510561
