14

 P   -0.305652403128    0.905698505193    0.766808940968
 O   -0.892652403128    1.955698505193    1.721808940968
 O   -0.571652403128    0.953698505193   -0.745191059032
 O    1.357347596872    0.731698505193    1.053808940968
 O   -0.620652403128   -0.652301494807    1.358808940968
 C    2.094347596872    1.896698505193    0.676808940968
 H    1.763347596872    2.779698505193    1.252808940968
 H    1.979347596872    2.107698505193   -0.401191059032
 H    3.154347596872    1.694698505193    0.896808940968
 C   -2.011652403128   -0.975301494807    1.308808940968
 H   -2.389652403128   -0.948301494807    0.270808940968
 H   -2.604652403128   -0.276301494807    1.924808940968
 H   -2.121652403128   -1.995301494807    1.708808940968
NA    0.884460529987   -3.927993292199   -4.675383862149
