14

 P   -0.303666959575    0.925262489253    0.790863286524
 O   -0.890666959575    1.975262489253    1.745863286524
 O   -0.569666959575    0.973262489253   -0.721136713476
 O    1.359333040425    0.751262489253    1.077863286524
 O   -0.618666959575   -0.632737510747    1.382863286524
 C    2.096333040425    1.916262489253    0.700863286524
 H    1.765333040425    2.799262489253    1.276863286524
 H    1.981333040425    2.127262489253   -0.377136713476
 H    3.156333040425    1.714262489253    0.920863286524
 C   -2.009666959575   -0.955737510747    1.332863286524
 H   -2.387666959575   -0.928737510747    0.294863286524
 H   -2.602666959575   -0.256737510747    1.948863286524
 H   -2.119666959575   -1.975737510747    1.732863286524
NA    0.873665242003   -4.034366924284   -4.806172565326
