14

 P   -0.302674237798    0.935044481284    0.802890459302
 O   -0.889674237798    1.985044481284    1.757890459302
 O   -0.568674237798    0.983044481284   -0.709109540698
 O    1.360325762202    0.761044481284    1.089890459302
 O   -0.617674237798   -0.622955518716    1.394890459302
 C    2.097325762202    1.926044481284    0.712890459302
 H    1.766325762202    2.809044481284    1.288890459302
 H    1.982325762202    2.137044481284   -0.365109540698
 H    3.157325762202    1.724044481284    0.932890459302
 C   -2.008674237798   -0.945955518716    1.344890459302
 H   -2.386674237798   -0.918955518716    0.306890459302
 H   -2.601674237798   -0.246955518716    1.960890459302
 H   -2.118674237798   -1.965955518716    1.744890459302
NA    0.868267598011   -4.087553740327   -4.871566916914
