14

 P   -0.300688794245    0.954608465344    0.826944804858
 O   -0.887688794245    2.004608465344    1.781944804858
 O   -0.566688794245    1.002608465344   -0.685055195142
 O    1.362311205755    0.780608465344    1.113944804858
 O   -0.615688794245   -0.603391534656    1.418944804858
 C    2.099311205755    1.945608465344    0.736944804858
 H    1.768311205755    2.828608465344    1.312944804858
 H    1.984311205755    2.156608465344   -0.341055195142
 H    3.159311205755    1.743608465344    0.956944804858
 C   -2.006688794245   -0.926391534656    1.368944804858
 H   -2.384688794245   -0.899391534656    0.330944804858
 H   -2.599688794245   -0.227391534656    1.984944804858
 H   -2.116688794245   -1.946391534656    1.768944804858
NA    0.857472310026   -4.193927372412   -5.002355620091
