14

 P   -0.298703350692    0.974172449404    0.850999150414
 O   -0.885703350692    2.024172449404    1.805999150414
 O   -0.564703350692    1.022172449404   -0.661000849586
 O    1.364296649308    0.800172449404    1.137999150414
 O   -0.613703350692   -0.583827550596    1.442999150414
 C    2.101296649308    1.965172449404    0.760999150414
 H    1.770296649308    2.848172449404    1.336999150414
 H    1.986296649308    2.176172449404   -0.317000849586
 H    3.161296649308    1.763172449404    0.980999150414
 C   -2.004703350692   -0.906827550596    1.392999150414
 H   -2.382703350692   -0.879827550596    0.354999150414
 H   -2.597703350692   -0.207827550596    2.008999150414
 H   -2.114703350692   -1.926827550596    1.792999150414
NA    0.846677022042   -4.300301004497   -5.133144323268
