14

 P   -0.296717907139    0.993736433465    0.875053495971
 O   -0.883717907139    2.043736433465    1.830053495971
 O   -0.562717907139    1.041736433465   -0.636946504029
 O    1.366282092861    0.819736433465    1.162053495971
 O   -0.611717907139   -0.564263566535    1.467053495971
 C    2.103282092861    1.984736433465    0.785053495971
 H    1.772282092861    2.867736433465    1.361053495971
 H    1.988282092861    2.195736433465   -0.292946504029
 H    3.163282092861    1.782736433465    1.005053495971
 C   -2.002717907139   -0.887263566535    1.417053495971
 H   -2.380717907139   -0.860263566535    0.379053495971
 H   -2.595717907139   -0.188263566535    2.033053495971
 H   -2.112717907139   -1.907263566535    1.817053495971
NA    0.835881734058   -4.406674636583   -5.263933026445
