14

 P   -0.294732463585    1.013300417525    0.899107841527
 O   -0.881732463585    2.063300417525    1.854107841527
 O   -0.560732463585    1.061300417525   -0.612892158473
 O    1.368267536415    0.839300417525    1.186107841527
 O   -0.609732463585   -0.544699582475    1.491107841527
 C    2.105267536415    2.004300417525    0.809107841527
 H    1.774267536415    2.887300417525    1.385107841527
 H    1.990267536415    2.215300417525   -0.268892158473
 H    3.165267536415    1.802300417525    1.029107841527
 C   -2.000732463585   -0.867699582475    1.441107841527
 H   -2.378732463585   -0.840699582475    0.403107841527
 H   -2.593732463585   -0.168699582475    2.057107841527
 H   -2.110732463585   -1.887699582475    1.841107841527
NA    0.825086446074   -4.513048268668   -5.394721729622
