14

 P   -0.289768854702    1.062210377676    0.959243705417
 O   -0.876768854702    2.112210377676    1.914243705417
 O   -0.555768854702    1.110210377676   -0.552756294583
 O    1.373231145298    0.888210377676    1.246243705417
 O   -0.604768854702   -0.495789622324    1.551243705417
 C    2.110231145298    2.053210377676    0.869243705417
 H    1.779231145298    2.936210377676    1.445243705417
 H    1.995231145298    2.264210377676   -0.208756294583
 H    3.170231145298    1.851210377676    1.089243705417
 C   -1.995768854702   -0.818789622324    1.501243705417
 H   -2.373768854702   -0.791789622324    0.463243705417
 H   -2.588768854702   -0.119789622324    2.117243705417
 H   -2.105768854702   -1.838789622324    1.901243705417
NA    0.798098226113   -4.778982348881   -5.721693487564
