14

 P   -0.285797967596    1.101338345797    1.007352396529
 O   -0.872797967596    2.151338345797    1.962352396529
 O   -0.551797967596    1.149338345797   -0.504647603471
 O    1.377202032404    0.927338345797    1.294352396529
 O   -0.600797967596   -0.456661654203    1.599352396529
 C    2.114202032404    2.092338345797    0.917352396529
 H    1.783202032404    2.975338345797    1.493352396529
 H    1.999202032404    2.303338345797   -0.160647603471
 H    3.174202032404    1.890338345797    1.137352396529
 C   -1.991797967596   -0.779661654203    1.549352396529
 H   -2.369797967596   -0.752661654203    0.511352396529
 H   -2.584797967596   -0.080661654203    2.165352396529
 H   -2.101797967596   -1.799661654203    1.949352396529
NA    0.776507650144   -4.991729613052   -5.983270893918
