14

 P   -0.284805245820    1.111120337827    1.019379569307
 O   -0.871805245820    2.161120337827    1.974379569307
 O   -0.550805245820    1.159120337827   -0.492620430693
 O    1.378194754180    0.937120337827    1.306379569307
 O   -0.599805245820   -0.446879662173    1.611379569307
 C    2.115194754180    2.102120337827    0.929379569307
 H    1.784194754180    2.985120337827    1.505379569307
 H    2.000194754180    2.313120337827   -0.148620430693
 H    3.175194754180    1.900120337827    1.149379569307
 C   -1.990805245820   -0.769879662173    1.561379569307
 H   -2.368805245820   -0.742879662173    0.523379569307
 H   -2.583805245820   -0.070879662173    2.177379569307
 H   -2.100805245820   -1.789879662173    1.961379569307
NA    0.771110006152   -5.044916429095   -6.048665245506
