14

 P   -0.280834358713    1.150248305948    1.067488260419
 O   -0.867834358713    2.200248305948    2.022488260419
 O   -0.546834358713    1.198248305948   -0.444511739581
 O    1.382165641287    0.976248305948    1.354488260419
 O   -0.595834358713   -0.407751694052    1.659488260419
 C    2.119165641287    2.141248305948    0.977488260419
 H    1.788165641287    3.024248305948    1.553488260419
 H    2.004165641287    2.352248305948   -0.100511739581
 H    3.179165641287    1.939248305948    1.197488260419
 C   -1.986834358713   -0.730751694052    1.609488260419
 H   -2.364834358713   -0.703751694052    0.571488260419
 H   -2.579834358713   -0.031751694052    2.225488260419
 H   -2.096834358713   -1.750751694052    2.009488260419
NA    0.749519430184   -5.257663693265   -6.310242651860
