8

 N    0.127956061721   -0.903311104094   -0.538676403718
 H   -0.276692938279   -0.084702104094   -0.089380403718
 H   -0.276692938279   -1.721920104094   -0.089380403718
 C    1.588394061721   -0.903311104094   -0.400639403718
 H    1.987497061721   -1.785252104094   -0.907028403718
 H    1.957075061721   -0.903311104094    0.635190596282
 H    1.987497061721   -0.021370104094   -0.907028403718
 K   -0.674301317568    0.719663649339    0.352098147769
