8

 N    0.282865954393   -1.216695376218   -0.710678299529
 H   -0.121783045607   -0.398086376218   -0.261382299529
 H   -0.121783045607   -2.035304376218   -0.261382299529
 C    1.743303954393   -1.216695376218   -0.572641299529
 H    2.142406954393   -2.098636376218   -1.079030299529
 H    2.111984954393   -1.216695376218    0.463188700471
 H    2.142406954393   -0.334754376218   -1.079030299529
 K   -0.797717290397    0.969335404618    0.489131237999
