8

 N    0.304995939061   -1.261464557950   -0.735249998931
 H   -0.099653060939   -0.442855557950   -0.285953998931
 H   -0.099653060939   -2.080073557950   -0.285953998931
 C    1.765433939061   -1.261464557950   -0.597212998931
 H    2.164536939061   -2.143405557950   -1.103601998931
 H    2.134114939061   -1.261464557950    0.438617001069
 H    2.164536939061   -0.379523557950   -1.103601998931
 K   -0.815348143658    1.005002798229    0.508707393746
