8

 N    0.327125923729   -1.306233739682   -0.759821698333
 H   -0.077523076271   -0.487624739682   -0.310525698333
 H   -0.077523076271   -2.124842739682   -0.310525698333
 C    1.787563923729   -1.306233739682   -0.621784698333
 H    2.186666923729   -2.188174739682   -1.128173698333
 H    2.156244923729   -1.306233739682    0.414045301667
 H    2.186666923729   -0.424292739682   -1.128173698333
 K   -0.832978996920    1.040670191841    0.528283549493
