8

 N    2.119654681796   -4.932537459976   -2.750129349865
 H    1.715005681796   -4.113928459976   -2.300833349865
 H    1.715005681796   -5.751146459976   -2.300833349865
 C    3.580092681796   -4.932537459976   -2.612092349865
 H    3.979195681796   -5.814478459976   -3.118481349865
 H    3.948773681796   -4.932537459976   -1.576262349865
 H    3.979195681796   -4.050596459976   -3.118481349865
 K   -2.261078111089    3.929729074356    2.113952165009
