8

 N    0.437775847066   -1.530079648343   -0.882680195341
 H    0.033126847066   -0.711470648343   -0.433384195341
 H    0.033126847066   -2.348688648343   -0.433384195341
 C    1.898213847066   -1.530079648343   -0.744643195341
 H    2.297316847066   -2.412020648343   -1.251032195341
 H    2.266894847066   -1.530079648343    0.291186804659
 H    2.297316847066   -0.648138648343   -1.251032195341
 K   -0.921133263226    1.219007159897    0.626164328229
