8

 N    0.482035816401   -1.619618011807   -0.931823594144
 H    0.077386816401   -0.801009011807   -0.482527594144
 H    0.077386816401   -2.438227011807   -0.482527594144
 C    1.942473816401   -1.619618011807   -0.793786594144
 H    2.341576816401   -2.501559011807   -1.300175594144
 H    2.311154816401   -1.619618011807    0.242043405856
 H    2.341576816401   -0.737677011807   -1.300175594144
 K   -0.956394969749    1.290341947120    0.665316639723
