8

 N    0.504165801069   -1.664387193539   -0.956395293546
 H    0.099516801069   -0.845778193539   -0.507099293546
 H    0.099516801069   -2.482996193539   -0.507099293546
 C    1.964603801069   -1.664387193539   -0.818358293546
 H    2.363706801069   -2.546328193539   -1.324747293546
 H    2.333284801069   -1.664387193539    0.217471706454
 H    2.363706801069   -0.782446193539   -1.324747293546
 K   -0.974025823010    1.326009340731    0.684892795470
