8

 N    0.548425770404   -1.753925557003   -1.005538692349
 H    0.143776770404   -0.935316557003   -0.556242692349
 H    0.143776770404   -2.572534557003   -0.556242692349
 C    2.008863770404   -1.753925557003   -0.867501692349
 H    2.407966770404   -2.635866557003   -1.373890692349
 H    2.377544770404   -1.753925557003    0.168328307651
 H    2.407966770404   -0.871984557003   -1.373890692349
 K   -1.009287529533    1.397344127954    0.724045106964
