8

 N    0.592685739739   -1.843463920467   -1.054682091152
 H    0.188036739739   -1.024854920467   -0.605386091152
 H    0.188036739739   -2.662072920467   -0.605386091152
 C    2.053123739739   -1.843463920467   -0.916645091152
 H    2.452226739739   -2.725404920467   -1.423034091152
 H    2.421804739739   -1.843463920467    0.119184908848
 H    2.452226739739   -0.961522920467   -1.423034091152
 K   -1.044549236056    1.468678915176    0.763197418459
