8

 N    0.614815724406   -1.888233102199   -1.079253790554
 H    0.210166724406   -1.069624102199   -0.629957790554
 H    0.210166724406   -2.706842102199   -0.629957790554
 C    2.075253724406   -1.888233102199   -0.941216790554
 H    2.474356724406   -2.770174102199   -1.447605790554
 H    2.443934724406   -1.888233102199    0.094613209446
 H    2.474356724406   -1.006292102199   -1.447605790554
 K   -1.062180089317    1.504346308787    0.782773574206
