8

 N    0.636945709074   -1.933002283931   -1.103825489956
 H    0.232296709074   -1.114393283931   -0.654529489956
 H    0.232296709074   -2.751611283931   -0.654529489956
 C    2.097383709074   -1.933002283931   -0.965788489956
 H    2.496486709074   -2.814943283931   -1.472177489956
 H    2.466064709074   -1.933002283931    0.070041510044
 H    2.496486709074   -1.051061283931   -1.472177489956
 K   -1.079810942579    1.540013702399    0.802349729953
