8

 N    0.681205678409   -2.022540647395   -1.152968888759
 H    0.276556678409   -1.203931647395   -0.703672888759
 H    0.276556678409   -2.841149647395   -0.703672888759
 C    2.141643678409   -2.022540647395   -1.014931888759
 H    2.540746678409   -2.904481647395   -1.521320888759
 H    2.510324678409   -2.022540647395    0.020898111241
 H    2.540746678409   -1.140599647395   -1.521320888759
 K   -1.115072649101    1.611348489621    0.841502041447
