8

 N    0.880375540416   -2.425463282983   -1.374114183374
 H    0.475726540416   -1.606854282983   -0.924818183374
 H    0.475726540416   -3.244072282983   -0.924818183374
 C    2.340813540416   -2.425463282983   -1.236077183374
 H    2.739916540416   -3.307404282983   -1.742466183374
 H    2.709494540416   -2.425463282983   -0.200247183374
 H    2.739916540416   -1.543522282983   -1.742466183374
 K   -1.273750328453    1.932355032123    1.017687443171
