8

 N    0.924635509751   -2.515001646447   -1.423257582177
 H    0.519986509751   -1.696392646447   -0.973961582177
 H    0.519986509751   -3.333610646447   -0.973961582177
 C    2.385073509751   -2.515001646447   -1.285220582177
 H    2.784176509751   -3.396942646447   -1.791609582177
 H    2.753754509751   -2.515001646447   -0.249390582177
 H    2.784176509751   -1.633060646447   -1.791609582177
 K   -1.309012034976    2.003689819346    1.056839754665
