8

 N    1.079545402424   -2.828385918571   -1.595259477988
 H    0.674896402424   -2.009776918571   -1.145963477988
 H    0.674896402424   -3.646994918571   -1.145963477988
 C    2.539983402424   -2.828385918571   -1.457222477988
 H    2.939086402424   -3.710326918571   -1.963611477988
 H    2.908664402424   -2.828385918571   -0.421392477988
 H    2.939086402424   -1.946444918571   -1.963611477988
 K   -1.432428007805    2.253361574625    1.193872844895
