8

 N    1.123805371759   -2.917924282035   -1.644402876792
 H    0.719156371759   -2.099315282035   -1.195106876792
 H    0.719156371759   -3.736533282035   -1.195106876792
 C    2.584243371759   -2.917924282035   -1.506365876792
 H    2.983346371759   -3.799865282035   -2.012754876792
 H    2.952924371759   -2.917924282035   -0.470535876792
 H    2.983346371759   -2.035983282035   -2.012754876792
 K   -1.467689714328    2.324696361847    1.233025156389
