8

 N    1.168065341094   -3.007462645499   -1.693546275595
 H    0.763416341094   -2.188853645499   -1.244250275595
 H    0.763416341094   -3.826071645499   -1.244250275595
 C    2.628503341094   -3.007462645499   -1.555509275595
 H    3.027606341094   -3.889403645499   -2.061898275595
 H    2.997184341094   -3.007462645499   -0.519679275595
 H    3.027606341094   -2.125521645499   -2.061898275595
 K   -1.502951420851    2.396031149070    1.272177467883
