8

 N    1.234455295096   -3.141770190695   -1.767261373800
 H    0.829806295096   -2.323161190695   -1.317965373800
 H    0.829806295096   -3.960379190695   -1.317965373800
 C    2.694893295096   -3.141770190695   -1.629224373800
 H    3.093996295096   -4.023711190695   -2.135613373800
 H    3.063574295096   -3.141770190695   -0.593394373800
 H    3.093996295096   -2.259829190695   -2.135613373800
 K   -1.555843980635    2.503033329904    1.330905935125
