8

 N    1.278715264431   -3.231308554159   -1.816404772603
 H    0.874066264431   -2.412699554159   -1.367108772603
 H    0.874066264431   -4.049917554159   -1.367108772603
 C    2.739153264431   -3.231308554159   -1.678367772603
 H    3.138256264431   -4.113249554159   -2.184756772603
 H    3.107834264431   -3.231308554159   -0.642537772603
 H    3.138256264431   -2.349367554159   -2.184756772603
 K   -1.591105687158    2.574368117126    1.370058246619
