8

 N    1.411495172436   -3.499923644552   -1.963834969013
 H    1.006846172436   -2.681314644552   -1.514538969013
 H    1.006846172436   -4.318532644552   -1.514538969013
 C    2.871933172436   -3.499923644552   -1.825797969013
 H    3.271036172436   -4.381864644552   -2.332186969013
 H    3.240614172436   -3.499923644552   -0.789967969013
 H    3.271036172436   -2.617982644552   -2.332186969013
 K   -1.696890806726    2.788372478794    1.487515181101
