8

 N    1.455755141771   -3.589462008016   -2.012978367816
 H    1.051106141771   -2.770853008016   -1.563682367816
 H    1.051106141771   -4.408071008016   -1.563682367816
 C    2.916193141771   -3.589462008016   -1.874941367816
 H    3.315296141771   -4.471403008016   -2.381330367816
 H    3.284874141771   -3.589462008016   -0.839111367816
 H    3.315296141771   -2.707521008016   -2.381330367816
 K   -1.732152513248    2.859707266017    1.526667492596
