8

 N    1.522145095774   -3.723769553212   -2.086693466021
 H    1.117496095774   -2.905160553212   -1.637397466021
 H    1.117496095774   -4.542378553212   -1.637397466021
 C    2.982583095774   -3.723769553212   -1.948656466021
 H    3.381686095774   -4.605710553212   -2.455045466021
 H    3.351264095774   -3.723769553212   -0.912826466021
 H    3.381686095774   -2.841828553212   -2.455045466021
 K   -1.785045073032    2.966709446851    1.585395959837
