8

 N    1.610665034444   -3.902846280140   -2.184980263627
 H    1.206016034444   -3.084237280140   -1.735684263627
 H    1.206016034444   -4.721455280140   -1.735684263627
 C    3.071103034444   -3.902846280140   -2.046943263627
 H    3.470206034444   -4.784787280140   -2.553332263627
 H    3.439784034444   -3.902846280140   -1.011113263627
 H    3.470206034444   -3.020905280140   -2.553332263627
 K   -1.855568486078    3.109379021296    1.663700582825
