8

 N    1.632795019111   -3.947615461872   -2.209551963029
 H    1.228146019111   -3.129006461872   -1.760255963029
 H    1.228146019111   -4.766224461872   -1.760255963029
 C    3.093233019111   -3.947615461872   -2.071514963029
 H    3.492336019111   -4.829556461872   -2.577903963029
 H    3.461914019111   -3.947615461872   -1.035684963029
 H    3.492336019111   -3.065674461872   -2.577903963029
 K   -1.873199339339    3.145046414907    1.683276738572
