8

 N    1.654925003779   -3.992384643604   -2.234123662431
 H    1.250276003779   -3.173775643604   -1.784827662431
 H    1.250276003779   -4.810993643604   -1.784827662431
 C    3.115363003779   -3.992384643604   -2.096086662431
 H    3.514466003779   -4.874325643604   -2.602475662431
 H    3.484044003779   -3.992384643604   -1.060256662431
 H    3.514466003779   -3.110443643604   -2.602475662431
 K   -1.890830192601    3.180713808518    1.702852894320
