8

 N    1.677054988446   -4.037153825336   -2.258695361832
 H    1.272405988446   -3.218544825336   -1.809399361832
 H    1.272405988446   -4.855762825336   -1.809399361832
 C    3.137492988446   -4.037153825336   -2.120658361832
 H    3.536595988446   -4.919094825336   -2.627047361832
 H    3.506173988446   -4.037153825336   -1.084828361832
 H    3.536595988446   -3.155212825336   -2.627047361832
 K   -1.908461045862    3.216381202130    1.722429050067
