8

 N    1.787704911784   -4.260999733996   -2.381553858841
 H    1.383055911784   -3.442390733996   -1.932257858841
 H    1.383055911784   -5.079608733996   -1.932257858841
 C    3.248142911784   -4.260999733996   -2.243516858841
 H    3.647245911784   -5.142940733996   -2.749905858841
 H    3.616823911784   -4.260999733996   -1.207686858841
 H    3.647245911784   -3.379058733996   -2.749905858841
 K   -1.996615312169    3.394718170186    1.820309828802
