8

 N    1.809834896451   -4.305768915728   -2.406125558242
 H    1.405185896451   -3.487159915728   -1.956829558242
 H    1.405185896451   -5.124377915728   -1.956829558242
 C    3.270272896451   -4.305768915728   -2.268088558242
 H    3.669375896451   -5.187709915728   -2.774477558242
 H    3.638953896451   -4.305768915728   -1.232258558242
 H    3.669375896451   -3.423827915728   -2.774477558242
 K   -2.014246165430    3.430385563798    1.839885984549
