8

 N    1.942614804456   -4.574384006120   -2.553555754652
 H    1.537965804456   -3.755775006120   -2.104259754652
 H    1.537965804456   -5.392993006120   -2.104259754652
 C    3.403052804456   -4.574384006120   -2.415518754652
 H    3.802155804456   -5.456325006120   -2.921907754652
 H    3.771733804456   -4.574384006120   -1.379688754652
 H    3.802155804456   -3.692443006120   -2.921907754652
 K   -2.120031284998    3.644389925465    1.957342919032
