8

 N    1.964744789124   -4.619153187852   -2.578127454054
 H    1.560095789124   -3.800544187852   -2.128831454054
 H    1.560095789124   -5.437762187852   -2.128831454054
 C    3.425182789124   -4.619153187852   -2.440090454054
 H    3.824285789124   -5.501094187852   -2.946479454054
 H    3.793863789124   -4.619153187852   -1.404260454054
 H    3.824285789124   -3.737212187852   -2.946479454054
 K   -2.137662138259    3.680057319077    1.976919074779
