8

 N    2.009004758459   -4.708691551316   -2.627270852857
 H    1.604355758459   -3.890082551316   -2.177974852857
 H    1.604355758459   -5.527300551316   -2.177974852857
 C    3.469442758459   -4.708691551316   -2.489233852857
 H    3.868545758459   -5.590632551316   -2.995622852857
 H    3.838123758459   -4.708691551316   -1.453403852857
 H    3.868545758459   -3.826750551316   -2.995622852857
 K   -2.172923844782    3.751392106299    2.016071386273
