8

 N    2.031134743126   -4.753460733048   -2.651842552258
 H    1.626485743126   -3.934851733048   -2.202546552258
 H    1.626485743126   -5.572069733048   -2.202546552258
 C    3.491572743126   -4.753460733048   -2.513805552258
 H    3.890675743126   -5.635401733048   -3.020194552258
 H    3.860253743126   -4.753460733048   -1.477975552258
 H    3.890675743126   -3.871519733048   -3.020194552258
 K   -2.190554698043    3.787059499911    2.035647542020
