8

 N    2.053264727794   -4.798229914780   -2.676414251660
 H    1.648615727794   -3.979620914780   -2.227118251660
 H    1.648615727794   -5.616838914780   -2.227118251660
 C    3.513702727794   -4.798229914780   -2.538377251660
 H    3.912805727794   -5.680170914780   -3.044766251660
 H    3.882383727794   -4.798229914780   -1.502547251660
 H    3.912805727794   -3.916288914780   -3.044766251660
 K   -2.208185551305    3.822726893522    2.055223697767
