13

 N   -0.796292428452    1.366582062969    0.000094448620
 C    0.377447154631    2.093954254479   -0.000218030550
 H    0.259730294568    3.179272713523   -0.000333878109
 C   -0.842068401532   -0.026629728898   -0.000290605949
 O   -1.893656570088   -0.660733042739    0.000052761155
 N    0.418372139609   -0.610099785030    0.000126297373
 H    0.428187936732   -1.628384896896    0.000098993278
 C    1.679626428842    0.025955701933    0.000143392209
 O    2.713319356910   -0.643308132483   -0.000602273455
 C    1.598147637082    1.486502763323   -0.000356505238
 H    2.521547775384    2.063563022189   -0.000697182015
 H   -1.700029604400    1.826236184329   -0.000107202980
NA   -1.874637000923   -1.660551963752    0.000670153585
