13

 N   -0.796940132601    1.400630513719    0.000073423557
 C    0.376799450482    2.128002705229   -0.000239055613
 H    0.259082590419    3.213321164273   -0.000354903172
 C   -0.842716105681    0.007418721852   -0.000311631012
 O   -1.894304274237   -0.626684591989    0.000031736092
 N    0.417724435460   -0.576051334280    0.000105272310
 H    0.427540232583   -1.594336446146    0.000077968215
 C    1.678978724693    0.060004152683    0.000122367146
 O    2.712671652761   -0.609259681733   -0.000623298518
 C    1.597499932933    1.520551214073   -0.000377530301
 H    2.520900071235    2.097611472939   -0.000718207078
 H   -1.700677308549    1.860284635079   -0.000128228043
NA   -1.871480791240   -1.826467297205    0.000772607008
