13

 N   -0.798235540900    1.468727415219    0.000031373431
 C    0.375504042183    2.196099606729   -0.000281105739
 H    0.257787182120    3.281418065773   -0.000396953298
 C   -0.844011513980    0.075515623352   -0.000353681138
 O   -1.895599682536   -0.558587690489   -0.000010314034
 N    0.416429027161   -0.507954432780    0.000063222184
 H    0.426244824284   -1.526239544646    0.000035918089
 C    1.677683316394    0.128101054183    0.000080317020
 O    2.711376244462   -0.541162780233   -0.000665348644
 C    1.596204524634    1.588648115573   -0.000419580427
 H    2.519604662936    2.165708374439   -0.000760257204
 H   -1.701972716848    1.928381536579   -0.000170278169
NA   -1.865168371873   -2.158297964110    0.000977513854
