13

 N   -0.798559392975    1.485751640594    0.000020860900
 C    0.375180190108    2.213123832104   -0.000291618270
 H    0.257463330045    3.298442291148   -0.000407465829
 C   -0.844335366055    0.092539848727   -0.000364193669
 O   -1.895923534611   -0.541563465114   -0.000020826565
 N    0.416105175086   -0.490930207405    0.000052709653
 H    0.425920972209   -1.509215319271    0.000025405558
 C    1.677359464319    0.145125279558    0.000069804489
 O    2.711052392387   -0.524138554858   -0.000675861175
 C    1.595880672559    1.605672340948   -0.000430092958
 H    2.519280810861    2.182732599814   -0.000770769735
 H   -1.702296568923    1.945405761954   -0.000180790700
NA   -1.863590267032   -2.241255630836    0.001028740565
