13

 N   -0.798883245050    1.502775865969    0.000010348369
 C    0.374856338033    2.230148057479   -0.000302130801
 H    0.257139477970    3.315466516523   -0.000417978360
 C   -0.844659218130    0.109564074102   -0.000374706200
 O   -1.896247386686   -0.524539239739   -0.000031339096
 N    0.415781323011   -0.473905982030    0.000042197122
 H    0.425597120134   -1.492191093896    0.000014893027
 C    1.677035612244    0.162149504933    0.000059291958
 O    2.710728540312   -0.507114329483   -0.000686373706
 C    1.595556820484    1.622696566323   -0.000440605489
 H    2.518956958786    2.199756825189   -0.000781282266
 H   -1.702620420998    1.962429987329   -0.000191303231
NA   -1.862012162190   -2.324213297562    0.001079967277
