13

 N   -0.799207097125    1.519800091344   -0.000000164163
 C    0.374532485958    2.247172282854   -0.000312643333
 H    0.256815625895    3.332490741898   -0.000428490892
 C   -0.844983070205    0.126588299477   -0.000385218732
 O   -1.896571238761   -0.507515014364   -0.000041851628
 N    0.415457470936   -0.456881756655    0.000031684590
 H    0.425273268059   -1.475166868521    0.000004380495
 C    1.676711760169    0.179173730308    0.000048779426
 O    2.710404688237   -0.490090104108   -0.000696886238
 C    1.595232968409    1.639720791698   -0.000451118021
 H    2.518633106711    2.216781050564   -0.000791794798
 H   -1.702944273073    1.979454212704   -0.000201815763
NA   -1.860434057348   -2.407170964289    0.001131193988
