13

 N   -0.800178653349    1.570872767469   -0.000031701757
 C    0.373560929734    2.298244958979   -0.000344180927
 H    0.255844069671    3.383563418023   -0.000460028486
 C   -0.845954626429    0.177660975602   -0.000416756326
 O   -1.897542794985   -0.456442338239   -0.000073389222
 N    0.414485914712   -0.405809080530    0.000000146996
 H    0.424301711835   -1.424094192396   -0.000027157099
 C    1.675740203945    0.230246406433    0.000017241832
 O    2.709433132013   -0.439017427983   -0.000728423832
 C    1.594261412185    1.690793467823   -0.000482655615
 H    2.517661550487    2.267853726689   -0.000823332392
 H   -1.703915829297    2.030526888829   -0.000233353357
NA   -1.855699742823   -2.656043964468    0.001284874123
