13

 N   -0.801474061648    1.638969668969   -0.000073751883
 C    0.372265521435    2.366341860479   -0.000386231053
 H    0.254548661372    3.451660319523   -0.000502078612
 C   -0.847250034728    0.245757877102   -0.000458806452
 O   -1.898838203284   -0.388345436739   -0.000115439348
 N    0.413190506413   -0.337712179030   -0.000041903130
 H    0.423006303536   -1.355997290896   -0.000069207225
 C    1.674444795646    0.298343307933   -0.000024808294
 O    2.708137723714   -0.370920526483   -0.000770473958
 C    1.592966003886    1.758890369323   -0.000524705741
 H    2.516366142188    2.335950628189   -0.000865382518
 H   -1.705211237596    2.098623790329   -0.000275403483
NA   -1.849387323457   -2.987874631373    0.001489780969
