13

 N   -0.802121765798    1.673018119719   -0.000094776946
 C    0.371617817285    2.400390311229   -0.000407256116
 H    0.253900957222    3.485708770273   -0.000523103675
 C   -0.847897738878    0.279806327852   -0.000479831515
 O   -1.899485907434   -0.354296985989   -0.000136464411
 N    0.412542802263   -0.303663728280   -0.000062928193
 H    0.422358599386   -1.321948840146   -0.000090232288
 C    1.673797091496    0.332391758683   -0.000045833357
 O    2.707490019564   -0.336872075733   -0.000791499021
 C    1.592318299736    1.792938820073   -0.000545730804
 H    2.515718438038    2.369999078939   -0.000886407581
 H   -1.705858941746    2.132672241079   -0.000296428546
NA   -1.846231113774   -3.153789964825    0.001592234392
