13

 N   -0.802445617873    1.690042345094   -0.000105289478
 C    0.371293965210    2.417414536604   -0.000417768648
 H    0.253577105147    3.502732995648   -0.000533616207
 C   -0.848221590953    0.296830553227   -0.000490344047
 O   -1.899809759509   -0.337272760614   -0.000146976943
 N    0.412218950188   -0.286639502905   -0.000073440725
 H    0.422034747311   -1.304924614771   -0.000100744820
 C    1.673473239421    0.349415984058   -0.000056345889
 O    2.707166167489   -0.319847850358   -0.000802011553
 C    1.591994447661    1.809963045448   -0.000556243336
 H    2.515394585963    2.387023304314   -0.000896920113
 H   -1.706182793821    2.149696466454   -0.000306941078
NA   -1.844653008932   -3.236747631552    0.001643461103
