13

 N   -0.802769469947    1.707066570469   -0.000115802009
 C    0.370970113136    2.434438761979   -0.000428281179
 H    0.253253253073    3.519757221023   -0.000544128738
 C   -0.848545443027    0.313854778602   -0.000500856578
 O   -1.900133611583   -0.320248535239   -0.000157489474
 N    0.411895098114   -0.269615277530   -0.000083953256
 H    0.421710895237   -1.287900389396   -0.000111257351
 C    1.673149387347    0.366440209433   -0.000066858420
 O    2.706842315415   -0.302823624983   -0.000812524084
 C    1.591670595587    1.826987270823   -0.000566755867
 H    2.515070733889    2.404047529689   -0.000907432644
 H   -1.706506645895    2.166720691829   -0.000317453609
NA   -1.843074904090   -3.319705298278    0.001694687815
