13

 N   -0.803093322022    1.724090795844   -0.000126314541
 C    0.370646261061    2.451462987354   -0.000438793711
 H    0.252929400998    3.536781446398   -0.000554641270
 C   -0.848869295102    0.330879003977   -0.000511369110
 O   -1.900457463658   -0.303224309864   -0.000168002006
 N    0.411571246039   -0.252591052155   -0.000094465788
 H    0.421387043162   -1.270876164021   -0.000121769883
 C    1.672825535272    0.383464434808   -0.000077370952
 O    2.706518463340   -0.285799399608   -0.000823036616
 C    1.591346743512    1.844011496198   -0.000577268399
 H    2.514746881814    2.421071755064   -0.000917945176
 H   -1.706830497970    2.183744917204   -0.000327966141
NA   -1.841496799249   -3.402662965004    0.001745914526
