13

 N   -0.804064878247    1.775163471969   -0.000157852135
 C    0.369674704836    2.502535663479   -0.000470331305
 H    0.251957844773    3.587854122523   -0.000586178864
 C   -0.849840851327    0.381951680102   -0.000542906704
 O   -1.901429019883   -0.252151633739   -0.000199539600
 N    0.410599689814   -0.201518376030   -0.000126003382
 H    0.420415486937   -1.219803487896   -0.000153307477
 C    1.671853979047    0.434537110933   -0.000108908546
 O    2.705546907115   -0.234726723483   -0.000854574210
 C    1.590375187287    1.895084172323   -0.000608805993
 H    2.513775325589    2.472144431189   -0.000949482770
 H   -1.707802054195    2.234817593329   -0.000359503735
NA   -1.836762484724   -3.651535965183    0.001899594661
