13

 N   -0.804712582396    1.809211922719   -0.000178877198
 C    0.369027000687    2.536584114229   -0.000491356368
 H    0.251310140624    3.621902573273   -0.000607203927
 C   -0.850488555476    0.416000130852   -0.000563931767
 O   -1.902076724032   -0.218103182989   -0.000220564663
 N    0.409951985665   -0.167469925280   -0.000147028445
 H    0.419767782788   -1.185755037146   -0.000174332540
 C    1.671206274898    0.468585561683   -0.000129933609
 O    2.704899202966   -0.200678272733   -0.000875599273
 C    1.589727483138    1.929132623073   -0.000629831056
 H    2.513127621440    2.506192881939   -0.000970507833
 H   -1.708449758344    2.268866044079   -0.000380528798
NA   -1.833606275040   -3.817451298636    0.002002048084
