13

 N   -0.805360286546    1.843260373469   -0.000199902261
 C    0.368379296537    2.570632564979   -0.000512381431
 H    0.250662436474    3.655951024023   -0.000628228990
 C   -0.851136259626    0.450048581602   -0.000584956830
 O   -1.902724428182   -0.184054732239   -0.000241589726
 N    0.409304281515   -0.133421474530   -0.000168053508
 H    0.419120078638   -1.151706586396   -0.000195357603
 C    1.670558570748    0.502634012433   -0.000150958672
 O    2.704251498816   -0.166629821983   -0.000896624336
 C    1.589079778988    1.963181073823   -0.000650856119
 H    2.512479917290    2.540241332689   -0.000991532896
 H   -1.709097462494    2.302914494829   -0.000401553861
NA   -1.830450065357   -3.983366632088    0.002104501507
