13

 N   -0.805684138621    1.860284598844   -0.000210414792
 C    0.368055444462    2.587656790354   -0.000522893962
 H    0.250338584399    3.672975249398   -0.000638741521
 C   -0.851460111701    0.467072806977   -0.000595469361
 O   -1.903048280257   -0.167030506864   -0.000252102257
 N    0.408980429440   -0.116397249155   -0.000178566039
 H    0.418796226563   -1.134682361021   -0.000205870134
 C    1.670234718673    0.519658237808   -0.000161471203
 O    2.703927646741   -0.149605596608   -0.000907136867
 C    1.588755926913    1.980205299198   -0.000661368650
 H    2.512156065215    2.557265558064   -0.001002045427
 H   -1.709421314569    2.319938720204   -0.000412066392
NA   -1.828871960515   -4.066324298815    0.002155728218
