13

 N   -0.806979546920    1.928381500343   -0.000252464918
 C    0.366760036163    2.655753691853   -0.000564944088
 H    0.249043176100    3.741072150897   -0.000680791647
 C   -0.852755520000    0.535169708476   -0.000637519487
 O   -1.904343688556   -0.098933605365   -0.000294152383
 N    0.407685021141   -0.048300347656   -0.000220616165
 H    0.417500818264   -1.066585459522   -0.000247920260
 C    1.668939310374    0.587755139307   -0.000203521329
 O    2.702632238442   -0.081508695109   -0.000949186993
 C    1.587460518614    2.048302200697   -0.000703418776
 H    2.510860656916    2.625362459563   -0.001044095553
 H   -1.710716722868    2.388035621703   -0.000454116518
NA   -1.822559541149   -4.398154965720    0.002360635064
