13

 N   -0.807627251069    1.962429951093   -0.000273489981
 C    0.366112332014    2.689802142603   -0.000585969151
 H    0.248395471951    3.775120601647   -0.000701816710
 C   -0.853403224149    0.569218159226   -0.000658544550
 O   -1.904991392705   -0.064885154615   -0.000315177446
 N    0.407037316992   -0.014251896906   -0.000241641228
 H    0.416853114115   -1.032537008772   -0.000268945323
 C    1.668291606225    0.621803590057   -0.000224546392
 O    2.701984534293   -0.047460244359   -0.000970212056
 C    1.586812814465    2.082350651447   -0.000724443839
 H    2.510212952767    2.659410910313   -0.001065120616
 H   -1.711364427017    2.422084072453   -0.000475141581
NA   -1.819403331466   -4.564070299173    0.002463088487
