13

 N   -0.808922659369    2.030526852593   -0.000315540107
 C    0.364816923714    2.757899044103   -0.000628019277
 H    0.247100063651    3.843217503147   -0.000743866836
 C   -0.854698632449    0.637315060726   -0.000700594676
 O   -1.906286801005    0.003211746885   -0.000357227572
 N    0.405741908692    0.053845004594   -0.000283691354
 H    0.415557705815   -0.964440107272   -0.000310995449
 C    1.666996197925    0.689900491557   -0.000266596518
 O    2.700689125993    0.020636657141   -0.001012262182
 C    1.585517406165    2.150447552947   -0.000766493965
 H    2.508917544467    2.727507811813   -0.001107170742
 H   -1.712659835317    2.490180973953   -0.000517191707
NA   -1.813090912099   -4.895900966078    0.002667995333
