13

 N   -0.809894215593    2.081599528718   -0.000347077701
 C    0.363845367490    2.808971720228   -0.000659556871
 H    0.246128507427    3.894290179272   -0.000775404430
 C   -0.855670188673    0.688387736851   -0.000732132270
 O   -1.907258357229    0.054284423010   -0.000388765166
 N    0.404770352468    0.104917680719   -0.000315228948
 H    0.414586149591   -0.913367431147   -0.000342533043
 C    1.666024641701    0.740973167682   -0.000298134112
 O    2.699717569769    0.071709333266   -0.001043799776
 C    1.584545849941    2.201520229072   -0.000798031559
 H    2.507945988243    2.778580487938   -0.001138708336
 H   -1.713631391541    2.541253650078   -0.000548729301
NA   -1.808356597574   -5.144773966257    0.002821675468
