13

 N   -0.810541919743    2.115647979468   -0.000368102764
 C    0.363197663340    2.843020170978   -0.000680581934
 H    0.245480803277    3.928338630022   -0.000796429493
 C   -0.856317892823    0.722436187601   -0.000753157333
 O   -1.907906061379    0.088332873760   -0.000409790229
 N    0.404122648318    0.138966131469   -0.000336254011
 H    0.413938445441   -0.879318980397   -0.000363558106
 C    1.665376937551    0.775021618432   -0.000319159175
 O    2.699069865619    0.105757784016   -0.001064824839
 C    1.583898145791    2.235568679822   -0.000819056622
 H    2.507298284093    2.812628938688   -0.001159733399
 H   -1.714279095691    2.575302100828   -0.000569754364
NA   -1.805200387891   -5.310689299709    0.002924128891
