13

 N   -0.811189623892    2.149696430218   -0.000389127827
 C    0.362549959191    2.877068621728   -0.000701606997
 H    0.244833099128    3.962387080772   -0.000817454556
 C   -0.856965596972    0.756484638351   -0.000774182396
 O   -1.908553765528    0.122381324510   -0.000430815292
 N    0.403474944169    0.173014582219   -0.000357279074
 H    0.413290741292   -0.845270529647   -0.000384583169
 C    1.664729233402    0.809070069182   -0.000340184238
 O    2.698422161470    0.139806234766   -0.001085849902
 C    1.583250441642    2.269617130572   -0.000840081685
 H    2.506650579944    2.846677389438   -0.001180758462
 H   -1.714926799840    2.609350551578   -0.000590779427
NA   -1.802044178208   -5.476604633162    0.003026582314
