13

 N   -0.811513475967    2.166720655593   -0.000399640359
 C    0.362226107116    2.894092847103   -0.000712119529
 H    0.244509247053    3.979411306147   -0.000827967088
 C   -0.857289449047    0.773508863726   -0.000784694928
 O   -1.908877617603    0.139405549885   -0.000441327824
 N    0.403151092094    0.190038807594   -0.000367791606
 H    0.412966889217   -0.828246304272   -0.000395095701
 C    1.664405381327    0.826094294557   -0.000350696770
 O    2.698098309395    0.156830460141   -0.001096362434
 C    1.582926589567    2.286641355947   -0.000850594217
 H    2.506326727869    2.863701614813   -0.001191270994
 H   -1.715250651915    2.626374776953   -0.000601291959
NA   -1.800466073366   -5.559562299888    0.003077809025
