13

 N   -0.811837328042    2.183744880968   -0.000410152890
 C    0.361902255041    2.911117072478   -0.000722632060
 H    0.244185394978    3.996435531522   -0.000838479619
 C   -0.857613301122    0.790533089101   -0.000795207459
 O   -1.909201469678    0.156429775260   -0.000451840355
 N    0.402827240019    0.207063032969   -0.000378304137
 H    0.412643037142   -0.811222078897   -0.000405608232
 C    1.664081529252    0.843118519932   -0.000361209301
 O    2.697774457320    0.173854685516   -0.001106874965
 C    1.582602737492    2.303665581322   -0.000861106748
 H    2.506002875794    2.880725840188   -0.001201783525
 H   -1.715574503990    2.643399002328   -0.000611804490
NA   -1.798887968524   -5.642519966615    0.003129035737
