13

 N   -0.812161180116    2.200769106343   -0.000420665422
 C    0.361578402967    2.928141297853   -0.000733144592
 H    0.243861542904    4.013459756897   -0.000848992151
 C   -0.857937153196    0.807557314476   -0.000805719991
 O   -1.909525321752    0.173454000635   -0.000462352887
 N    0.402503387945    0.224087258344   -0.000388816669
 H    0.412319185068   -0.794197853522   -0.000416120764
 C    1.663757677178    0.860142745307   -0.000371721833
 O    2.697450605246    0.190878910891   -0.001117387497
 C    1.582278885418    2.320689806697   -0.000871619280
 H    2.505679023720    2.897750065563   -0.001212296057
 H   -1.715898356064    2.660423227703   -0.000622317022
NA   -1.797309863683   -5.725477633341    0.003180262448
