13

 N   -0.812485032191    2.217793331718   -0.000431177953
 C    0.361254550892    2.945165523228   -0.000743657123
 H    0.243537690829    4.030483982272   -0.000859504682
 C   -0.858261005271    0.824581539851   -0.000816232522
 O   -1.909849173827    0.190478226010   -0.000472865418
 N    0.402179535870    0.241111483719   -0.000399329200
 H    0.411995332993   -0.777173628147   -0.000426633295
 C    1.663433825103    0.877166970682   -0.000382234364
 O    2.697126753171    0.207903136266   -0.001127900028
 C    1.581955033343    2.337714032072   -0.000882131811
 H    2.505355171645    2.914774290938   -0.001222808588
 H   -1.716222208139    2.677447453078   -0.000632829553
NA   -1.795731758841   -5.808435300067    0.003231489160
