13

 N   -0.812808884266    2.234817557093   -0.000441690485
 C    0.360930698817    2.962189748603   -0.000754169655
 H    0.243213838754    4.047508207647   -0.000870017214
 C   -0.858584857346    0.841605765226   -0.000826745054
 O   -1.910173025902    0.207502451385   -0.000483377950
 N    0.401855683795    0.258135709094   -0.000409841732
 H    0.411671480918   -0.760149402772   -0.000437145827
 C    1.663109973028    0.894191196057   -0.000392746896
 O    2.696802901096    0.224927361641   -0.001138412560
 C    1.581631181268    2.354738257447   -0.000892644343
 H    2.505031319570    2.931798516313   -0.001233321120
 H   -1.716546060214    2.694471678453   -0.000643342085
NA   -1.794153653999   -5.891392966793    0.003282715871
