13

 N   -0.813132736341    2.251841782468   -0.000452203016
 C    0.360606846742    2.979213973978   -0.000764682186
 H    0.242889986679    4.064532433022   -0.000880529745
 C   -0.858908709421    0.858629990601   -0.000837257585
 O   -1.910496877977    0.224526676760   -0.000493890481
 N    0.401531831720    0.275159934469   -0.000420354263
 H    0.411347628843   -0.743125177397   -0.000447658358
 C    1.662786120953    0.911215421432   -0.000403259427
 O    2.696479049021    0.241951587016   -0.001148925091
 C    1.581307329193    2.371762482822   -0.000903156874
 H    2.504707467495    2.948822741688   -0.001243833651
 H   -1.716869912289    2.711495903828   -0.000653854616
NA   -1.792575549158   -5.974350633520    0.003333942583
