13

 N   -0.813780440490    2.285890233218   -0.000473228079
 C    0.359959142593    3.013262424728   -0.000785707249
 H    0.242242282530    4.098580883772   -0.000901554808
 C   -0.859556413570    0.892678441351   -0.000858282648
 O   -1.911144582126    0.258575127510   -0.000514915544
 N    0.400884127571    0.309208385219   -0.000441379326
 H    0.410699924694   -0.709076726647   -0.000468683421
 C    1.662138416804    0.945263872182   -0.000424284490
 O    2.695831344872    0.276000037766   -0.001169950154
 C    1.580659625044    2.405810933572   -0.000924181937
 H    2.504059763346    2.982871192438   -0.001264858714
 H   -1.717517616438    2.745544354578   -0.000674879679
NA   -1.789419339474   -6.140265966972    0.003436396006
