13

 N   -0.814751996715    2.336962909343   -0.000504765673
 C    0.358987586368    3.064335100853   -0.000817244843
 H    0.241270726305    4.149653559897   -0.000933092402
 C   -0.860527969795    0.943751117476   -0.000889820242
 O   -1.912116138351    0.309647803635   -0.000546453138
 N    0.399912571346    0.360281061344   -0.000472916920
 H    0.409728368469   -0.658004050522   -0.000500221015
 C    1.661166860579    0.996336548307   -0.000455822084
 O    2.694859788647    0.327072713891   -0.001201487748
 C    1.579688068819    2.456883609697   -0.000955719531
 H    2.503088207121    3.033943868563   -0.001296396308
 H   -1.718489172663    2.796617030703   -0.000706417273
NA   -1.784685024949   -6.389138967151    0.003590076140
