13

 N   -0.815723552939    2.388035585468   -0.000536303268
 C    0.358016030144    3.115407776978   -0.000848782438
 H    0.240299170081    4.200726236022   -0.000964629997
 C   -0.861499526019    0.994823793601   -0.000921357837
 O   -1.913087694575    0.360720479760   -0.000577990733
 N    0.398941015122    0.411353737469   -0.000504454515
 H    0.408756812245   -0.606931374397   -0.000531758610
 C    1.660195304355    1.047409224432   -0.000487359679
 O    2.693888232423    0.378145390016   -0.001233025343
 C    1.578716512595    2.507956285822   -0.000987257126
 H    2.502116650897    3.085016544688   -0.001327933903
 H   -1.719460728887    2.847689706828   -0.000737954868
NA   -1.779950710425   -6.638011967330    0.003743756275
