13

 N   -0.816047405014    2.405059810843   -0.000546815799
 C    0.357692178069    3.132432002353   -0.000859294969
 H    0.239975318006    4.217750461397   -0.000975142528
 C   -0.861823378094    1.011848018976   -0.000931870368
 O   -1.913411546650    0.377744705135   -0.000588503264
 N    0.398617163047    0.428377962844   -0.000514967046
 H    0.408432960170   -0.589907149022   -0.000542271141
 C    1.659871452280    1.064433449807   -0.000497872210
 O    2.693564380348    0.395169615391   -0.001243537874
 C    1.578392660520    2.524980511197   -0.000997769657
 H    2.501792798822    3.102040770063   -0.001338446434
 H   -1.719784580962    2.864713932203   -0.000748467399
NA   -1.778372605583   -6.720969634056    0.003794982986
