13

 N   -0.816371257089    2.422084036218   -0.000557328331
 C    0.357368325994    3.149456227728   -0.000869807501
 H    0.239651465931    4.234774686772   -0.000985655060
 C   -0.862147230169    1.028872244351   -0.000942382900
 O   -1.913735398725    0.394768930510   -0.000599015796
 N    0.398293310972    0.445402188219   -0.000525479578
 H    0.408109108095   -0.572882923647   -0.000552783673
 C    1.659547600205    1.081457675182   -0.000508384742
 O    2.693240528273    0.412193840766   -0.001254050406
 C    1.578068808445    2.542004736572   -0.001008282189
 H    2.501468946747    3.119064995438   -0.001348958966
 H   -1.720108433037    2.881738157578   -0.000758979931
NA   -1.776794500741   -6.803927300783    0.003846209698
