13

 N   -0.817342813313    2.473156712343   -0.000588865925
 C    0.356396769770    3.200528903853   -0.000901345095
 H    0.238679909707    4.285847362897   -0.001017192654
 C   -0.863118786393    1.079944920476   -0.000973920494
 O   -1.914706954949    0.445841606635   -0.000630553390
 N    0.397321754748    0.496474864344   -0.000557017172
 H    0.407137551871   -0.521810247522   -0.000584321267
 C    1.658576043981    1.132530351307   -0.000539922336
 O    2.692268972049    0.463266516891   -0.001285588000
 C    1.577097252221    2.593077412697   -0.001039819783
 H    2.500497390523    3.170137671563   -0.001380496560
 H   -1.721079989261    2.932810833703   -0.000790517525
NA   -1.772060186216   -7.052800300962    0.003999889832
