13

 N   -0.817990517463    2.507205163093   -0.000609890988
 C    0.355749065620    3.234577354603   -0.000922370158
 H    0.238032205557    4.319895813647   -0.001038217717
 C   -0.863766490543    1.113993371226   -0.000994945557
 O   -1.915354659099    0.479890057385   -0.000651578453
 N    0.396674050598    0.530523315094   -0.000578042235
 H    0.406489847721   -0.487761796772   -0.000605346330
 C    1.657928339831    1.166578802057   -0.000560947399
 O    2.691621267899    0.497314967641   -0.001306613063
 C    1.576449548071    2.627125863447   -0.001060844846
 H    2.499849686373    3.204186122313   -0.001401521623
 H   -1.721727693411    2.966859284453   -0.000811542588
NA   -1.768903976533   -7.218715634414    0.004102343255
