13

 N   -0.818314369538    2.524229388468   -0.000620403519
 C    0.355425213545    3.251601579978   -0.000932882689
 H    0.237708353482    4.336920039022   -0.001048730248
 C   -0.864090342618    1.131017596601   -0.001005458088
 O   -1.915678511174    0.496914282760   -0.000662090984
 N    0.396350198523    0.547547540469   -0.000588554766
 H    0.406165995646   -0.470737571397   -0.000615858861
 C    1.657604487756    1.183603027432   -0.000571459930
 O    2.691297415824    0.514339193016   -0.001317125594
 C    1.576125695996    2.644150088822   -0.001071357377
 H    2.499525834298    3.221210347688   -0.001412034154
 H   -1.722051545486    2.983883509828   -0.000822055119
NA   -1.767325871691   -7.301673301141    0.004153569967
