13

 N   -0.819285925762    2.575302064593   -0.000651941114
 C    0.354453657321    3.302674256103   -0.000964420284
 H    0.236736797258    4.387992715147   -0.001080267843
 C   -0.865061898842    1.182090272726   -0.001036995683
 O   -1.916650067398    0.547986958885   -0.000693628579
 N    0.395378642299    0.598620216594   -0.000620092361
 H    0.405194439422   -0.419664895272   -0.000647396456
 C    1.656632931532    1.234675703557   -0.000602997525
 O    2.690325859600    0.565411869141   -0.001348663189
 C    1.575154139772    2.695222764947   -0.001102894972
 H    2.498554278074    3.272283023813   -0.001443571749
 H   -1.723023101710    3.034956185953   -0.000853592714
NA   -1.762591557166   -7.550546301320    0.004307250101
