13

 N   -0.819933629912    2.609350515343   -0.000672966177
 C    0.353805953171    3.336722706853   -0.000985445347
 H    0.236089093108    4.422041165897   -0.001101292906
 C   -0.865709602992    1.216138723476   -0.001058020746
 O   -1.917297771548    0.582035409635   -0.000714653642
 N    0.394730938149    0.632668667344   -0.000641117424
 H    0.404546735272   -0.385616444522   -0.000668421519
 C    1.655985227382    1.268724154307   -0.000624022588
 O    2.689678155450    0.599460319891   -0.001369688252
 C    1.574506435622    2.729271215697   -0.001123920035
 H    2.497906573924    3.306331474563   -0.001464596812
 H   -1.723670805860    3.069004636703   -0.000874617777
NA   -1.759435347483   -7.716461634772    0.004409703524
