13

 N   -0.821552890286    2.694471642218   -0.000725528834
 C    0.352186692797    3.421843833728   -0.001038008004
 H    0.234469832734    4.507162292772   -0.001153855563
 C   -0.867328863366    1.301259850351   -0.001110583403
 O   -1.918917031922    0.667156536510   -0.000767216299
 N    0.393111677775    0.717789794219   -0.000693680081
 H    0.402927474898   -0.300495317647   -0.000720984176
 C    1.654365967008    1.353845281182   -0.000676585245
 O    2.688058895076    0.684581446766   -0.001422250909
 C    1.572887175248    2.814392342572   -0.001176482692
 H    2.496287313550    3.391452601438   -0.001517159469
 H   -1.725290066234    3.154125763578   -0.000927180434
NA   -1.751544823275   -8.131249968404    0.004665837082
