13

 N   -0.823819854809    2.813641219843   -0.000799116554
 C    0.349919728274    3.541013411353   -0.001111595724
 H    0.232202868211    4.626331870397   -0.001227443283
 C   -0.869595827889    1.420429427976   -0.001184171123
 O   -1.921183996445    0.786326114135   -0.000840804019
 N    0.390844713252    0.836959371844   -0.000767267801
 H    0.400660510375   -0.181325740022   -0.000794571896
 C    1.652099002485    1.473014858807   -0.000750172965
 O    2.685791930553    0.803751024391   -0.001495838629
 C    1.570620210725    2.933561920197   -0.001250070412
 H    2.494020349027    3.510622179063   -0.001590747189
 H   -1.727557030757    3.273295341203   -0.001000768154
NA   -1.740498089383   -8.711953635488    0.005024424062
