13

 N   -0.824467558959    2.847689670593   -0.000820141617
 C    0.349272024124    3.575061862103   -0.001132620787
 H    0.231555164061    4.660380321147   -0.001248468346
 C   -0.870243532039    1.454477878726   -0.001205196186
 O   -1.921831700595    0.820374564885   -0.000861829082
 N    0.390197009102    0.871007822594   -0.000788292864
 H    0.400012806225   -0.147277289272   -0.000815596959
 C    1.651451298335    1.507063309557   -0.000771198028
 O    2.685144226403    0.837799475141   -0.001516863692
 C    1.569972506575    2.967610370947   -0.001271095475
 H    2.493372644877    3.544670629813   -0.001611772252
 H   -1.728204734907    3.307343791953   -0.001021793217
NA   -1.737341879700   -8.877868968940    0.005126877485
