13

 N   -0.825115263108    2.881738121343   -0.000841166680
 C    0.348624319975    3.609110312853   -0.001153645850
 H    0.230907459912    4.694428771897   -0.001269493409
 C   -0.870891236188    1.488526329476   -0.001226221249
 O   -1.922479404744    0.854423015635   -0.000882854145
 N    0.389549304953    0.905056273344   -0.000809317927
 H    0.399365102076   -0.113228838522   -0.000836622022
 C    1.650803594186    1.541111760307   -0.000792223091
 O    2.684496522254    0.871847925891   -0.001537888755
 C    1.569324802426    3.001658821697   -0.001292120538
 H    2.492724940728    3.578719080563   -0.001632797315
 H   -1.728852439056    3.341392242703   -0.001042818280
NA   -1.734185670017   -9.043784302393    0.005229330908
