14

 N    1.945169777009    1.197144876480    0.249183682891
 C    0.859722834106    2.019903846308    0.252325554112
 H    1.051243673988    3.094960818807    0.249820955570
 C    1.863306056327   -0.222125585246    0.250201351775
 O    2.907049303645   -0.875367475307    0.247720510463
 N    0.589467967646   -0.764265216839    0.260814585905
 C   -0.468218145167    0.037086814036    0.258321541077
 N   -1.700211261623   -0.566712215044    0.212915717868
 H   -1.709145729944   -1.566406101555    0.382486326433
 H   -2.518789005826   -0.040283895644    0.487815842665
 C   -0.399636146733    1.478463653231    0.254838107411
 H   -1.288159862418    2.109781244475    0.245356153384
 H    2.889109899936    1.571793088922    0.245877786663
 K   -2.023846606103   -0.746714096728   -0.715986583987
