14

 N    1.978794968467    1.215846782306    0.345695137150
 C    0.893348025564    2.038605752134    0.348837008371
 H    1.084868865446    3.113662724633    0.346332409829
 C    1.896931247785   -0.203423679420    0.346712806034
 O    2.940674495103   -0.856665569481    0.344231964722
 N    0.623093159104   -0.745563311013    0.357326040164
 C   -0.434592953709    0.055788719862    0.354832995336
 N   -1.666586070165   -0.548010309218    0.309427172127
 H   -1.675520538486   -1.547704195729    0.478997780692
 H   -2.485163814368   -0.021581989818    0.584327296924
 C   -0.366010955275    1.497165559057    0.351349561670
 H   -1.254534670960    2.128483150301    0.341867607643
 H    2.922735091394    1.590494994748    0.342389240922
 K   -2.119675552438   -0.800012943576   -0.991036050471
