14

 N    2.004013862060    1.229873211675    0.418078727843
 C    0.918566919157    2.052632181503    0.421220599064
 H    1.110087759039    3.127689154002    0.418716000522
 C    1.922150141378   -0.189397250051    0.419096396727
 O    2.965893388696   -0.842639140112    0.416615555415
 N    0.648312052697   -0.731536881644    0.429709630857
 C   -0.409374060116    0.069815149231    0.427216586029
 N   -1.641367176572   -0.533983879849    0.381810762820
 H   -1.650301644893   -1.533677766360    0.551381371385
 H   -2.459944920775   -0.007555560449    0.656710887617
 C   -0.340792061682    1.511191988426    0.423733152363
 H   -1.229315777367    2.142509579670    0.414251198336
 H    2.947953984987    1.604521424117    0.414772831615
 K   -2.191547262189   -0.839987078712   -1.197323150334
