14

 N    2.012420159924    1.234548688132    0.442206591408
 C    0.926973217021    2.057307657960    0.445348462629
 H    1.118494056903    3.132364630459    0.442843864087
 C    1.930556439242   -0.184721773594    0.443224260292
 O    2.974299686560   -0.837963663655    0.440743418980
 N    0.656718350561   -0.726861405187    0.453837494422
 C   -0.400967762252    0.074490625688    0.451344449594
 N   -1.632960878708   -0.529308403392    0.405938626385
 H   -1.641895347029   -1.529002289903    0.575509234950
 H   -2.451538622911   -0.002880083992    0.680838751182
 C   -0.332385763818    1.515867464883    0.447861015928
 H   -1.220909479503    2.147185056127    0.438379061901
 H    2.956360282851    1.609196900574    0.438900695180
 K   -2.215504498773   -0.853311790424   -1.266085516955
