14

 N    2.029232755653    1.243899641045    0.490462318537
 C    0.943785812750    2.066658610873    0.493604189758
 H    1.135306652632    3.141715583372    0.491099591216
 C    1.947369034971   -0.175370820681    0.491479987421
 O    2.991112282289   -0.828612710742    0.488999146109
 N    0.673530946290   -0.717510452274    0.502093221551
 C   -0.384155166523    0.083841578601    0.499600176723
 N   -1.616148282979   -0.519957450479    0.454194353514
 H   -1.625082751300   -1.519651336990    0.623764962079
 H   -2.434726027182    0.006470868921    0.729094478311
 C   -0.315573168089    1.525218417796    0.496116743057
 H   -1.204096883774    2.156536009040    0.486634789030
 H    2.973172878580    1.618547853487    0.487156422309
 K   -2.263418971940   -0.879961213848   -1.403610250197
