14

 N    2.037639053518    1.248575117501    0.514590182102
 C    0.952192110615    2.071334087329    0.517732053323
 H    1.143712950497    3.146391059828    0.515227454781
 C    1.955775332836   -0.170695344225    0.515607850986
 O    2.999518580154   -0.823937234286    0.513127009674
 N    0.681937244155   -0.712834975818    0.526221085116
 C   -0.375748868658    0.088517055057    0.523728040288
 N   -1.607741985114   -0.515281974023    0.478322217079
 H   -1.616676453435   -1.514975860534    0.647892825644
 H   -2.426319729317    0.011146345377    0.753222341876
 C   -0.307166870224    1.529893894252    0.520244606622
 H   -1.195690585909    2.161211485496    0.510762652595
 H    2.981579176445    1.623223329943    0.511284285874
 K   -2.287376208524   -0.893285925560   -1.472372616818
