14

 N    2.046045351382    1.253250593958    0.538718045666
 C    0.960598408479    2.076009563786    0.541859916887
 H    1.152119248361    3.151066536285    0.539355318345
 C    1.964181630700   -0.166019867768    0.539735714550
 O    3.007924878018   -0.819261757829    0.537254873238
 N    0.690343542019   -0.708159499361    0.550348948680
 C   -0.367342570794    0.093192531514    0.547855903852
 N   -1.599335687250   -0.510606497566    0.502450080643
 H   -1.608270155571   -1.510300384077    0.672020689208
 H   -2.417913431453    0.015821821834    0.777350205440
 C   -0.298760572360    1.534569370709    0.544372470186
 H   -1.187284288045    2.165886961953    0.534890516159
 H    2.989985474309    1.627898806400    0.535412149438
 K   -2.311333445108   -0.906610637272   -1.541134983439
