14

 N    2.054451649246    1.257926070414    0.562845909231
 C    0.969004706343    2.080685040242    0.565987780452
 H    1.160525546225    3.155742012741    0.563483181910
 C    1.972587928564   -0.161344391312    0.563863578115
 O    3.016331175882   -0.814586281373    0.561382736803
 N    0.698749839883   -0.703484022905    0.574476812245
 C   -0.358936272930    0.097868007970    0.571983767417
 N   -1.590929389386   -0.505931021110    0.526577944208
 H   -1.599863857707   -1.505624907621    0.696148552773
 H   -2.409507133589    0.020497298290    0.801478069005
 C   -0.290354274496    1.539244847165    0.568500333751
 H   -1.178877990181    2.170562438409    0.559018379724
 H    2.998391772173    1.632574282856    0.559540013003
 K   -2.335290681692   -0.919935348984   -1.609897350060
