14

 N    2.062857947111    1.262601546870    0.586973772795
 C    0.977411004208    2.085360516698    0.590115644016
 H    1.168931844090    3.160417489197    0.587611045474
 C    1.980994226429   -0.156668914856    0.587991441679
 O    3.024737473747   -0.809910804917    0.585510600367
 N    0.707156137748   -0.698808546449    0.598604675809
 C   -0.350529975065    0.102543484426    0.596111630981
 N   -1.582523091521   -0.501255544654    0.550705807772
 H   -1.591457559842   -1.500949431165    0.720276416337
 H   -2.401100835724    0.025172774746    0.825605932569
 C   -0.281947976631    1.543920323621    0.592628197315
 H   -1.170471692316    2.175237914865    0.583146243288
 H    3.006798070038    1.637249759312    0.583667876567
 K   -2.359247918275   -0.933260060696   -1.678659716681
