14

 N    2.071264244975    1.267277023327    0.611101636360
 C    0.985817302072    2.090035993155    0.614243507581
 H    1.177338141954    3.165092965654    0.611738909039
 C    1.989400524293   -0.151993438399    0.612119305244
 O    3.033143771611   -0.805235328460    0.609638463932
 N    0.715562435612   -0.694133069992    0.622732539374
 C   -0.342123677201    0.107218960883    0.620239494546
 N   -1.574116793657   -0.496580068197    0.574833671337
 H   -1.583051261978   -1.496273954708    0.744404279902
 H   -2.392694537860    0.029848251203    0.849733796134
 C   -0.273541678767    1.548595800078    0.616756060880
 H   -1.162065394452    2.179913391322    0.607274106853
 H    3.015204367902    1.641925235769    0.607795740132
 K   -2.383205154859   -0.946584772408   -1.747422083302
