14

 N    2.130108330026    1.300005358522    0.779996681312
 C    1.044661387123    2.122764328350    0.783138552533
 H    1.236182227005    3.197821300849    0.780633953991
 C    2.048244609344   -0.119265103204    0.781014350196
 O    3.091987856662   -0.772506993265    0.778533508884
 N    0.774406520663   -0.661404734797    0.791627584326
 C   -0.283279592150    0.139947296078    0.789134539498
 N   -1.515272708606   -0.463851733002    0.743728716289
 H   -1.524207176927   -1.463545619513    0.913299324854
 H   -2.333850452809    0.062576586398    1.018628841086
 C   -0.214697593716    1.581324135273    0.785651105832
 H   -1.103221309401    2.212641726517    0.776169151805
 H    3.074048452953    1.674653570964    0.776690785084
 K   -2.550905810945   -1.039857754393   -2.228758649649
