14

 N    2.138514627890    1.304680834978    0.804124544876
 C    1.053067684987    2.127439804806    0.807266416097
 H    1.244588524869    3.202496777305    0.804761817555
 C    2.056650907208   -0.114589626748    0.805142213760
 O    3.100394154526   -0.767831516809    0.802661372448
 N    0.782812818527   -0.656729258341    0.815755447890
 C   -0.274873294286    0.144622772534    0.813262403062
 N   -1.506866410742   -0.459176256546    0.767856579853
 H   -1.515800879063   -1.458870143057    0.937427188418
 H   -2.325444154945    0.067252062854    1.042756704650
 C   -0.206291295852    1.585999611729    0.809778969396
 H   -1.094815011537    2.217317202973    0.800297015369
 H    3.082454750817    1.679329047420    0.800818648648
 K   -2.574863047529   -1.053182466105   -2.297521016270
