14

 N    2.155327223619    1.314031787891    0.852380272006
 C    1.069880280716    2.136790757719    0.855522143227
 H    1.261401120598    3.211847730218    0.853017544685
 C    2.073463502937   -0.105238673835    0.853397940890
 O    3.117206750255   -0.758480563896    0.850917099578
 N    0.799625414256   -0.647378305428    0.864011175020
 C   -0.258060698557    0.153973725447    0.861518130192
 N   -1.490053815013   -0.449825303633    0.816112306983
 H   -1.498988283334   -1.449519190144    0.985682915548
 H   -2.308631559216    0.076603015767    1.091012431780
 C   -0.189478700123    1.595350564642    0.858034696526
 H   -1.078002415808    2.226668155886    0.848552742499
 H    3.099267346546    1.688680000333    0.849074375778
 K   -2.622777520696   -1.079831889529   -2.435045749512
