14

 N    2.163733521483    1.318707264348    0.876508135570
 C    1.078286578580    2.141466234176    0.879650006791
 H    1.269807418462    3.216523206675    0.877145408249
 C    2.081869800801   -0.100563197378    0.877525804454
 O    3.125613048119   -0.753805087439    0.875044963142
 N    0.808031712120   -0.642702828971    0.888139038584
 C   -0.249654400693    0.158649201904    0.885645993756
 N   -1.481647517149   -0.445149827176    0.840240170547
 H   -1.490581985470   -1.444843713687    1.009810779112
 H   -2.300225261352    0.081278492224    1.115140295344
 C   -0.181072402259    1.600026041099    0.882162560090
 H   -1.069596117944    2.231343632343    0.872680606063
 H    3.107673644410    1.693355476790    0.873202239342
 K   -2.646734757280   -1.093156601241   -2.503808116133
