14

 N    2.180546117212    1.328058217261    0.924763862699
 C    1.095099174309    2.150817187089    0.927905733920
 H    1.286620014191    3.225874159588    0.925401135378
 C    2.098682396530   -0.091212244465    0.925781531583
 O    3.142425643848   -0.744454134526    0.923300690271
 N    0.824844307849   -0.633351876058    0.936394765713
 C   -0.232841804964    0.168000154817    0.933901720885
 N   -1.464834921420   -0.435798874263    0.888495897676
 H   -1.473769389741   -1.435492760774    1.058066506241
 H   -2.283412665623    0.090629445137    1.163396022473
 C   -0.164259806530    1.609376994012    0.930418287219
 H   -1.052783522215    2.240694585256    0.920936333192
 H    3.124486240139    1.702706429703    0.921457966471
 K   -2.694649230447   -1.119806024665   -2.641332849375
