14

 N    2.230983904398    1.356111075999    1.069531044087
 C    1.145536961495    2.178870045827    1.072672915308
 H    1.337057801377    3.253927018326    1.070168316766
 C    2.149120183716   -0.063159385727    1.070548712971
 O    3.192863431034   -0.716401275788    1.068067871659
 N    0.875282095035   -0.605299017320    1.081161947101
 C   -0.182404017778    0.196053013555    1.078668902273
 N   -1.414397134234   -0.407746015525    1.033263079064
 H   -1.423331602555   -1.407439902036    1.202833687629
 H   -2.232974878437    0.118682303875    1.308163203861
 C   -0.113822019344    1.637429852750    1.075185468607
 H   -1.002345735029    2.268747443994    1.065703514580
 H    3.174924027325    1.730759288441    1.066225147859
 K   -2.838392649949   -1.199754294937   -3.053907049101
