14

 N    2.273015393720    1.379488458281    1.190170361910
 C    1.187568450817    2.202247428109    1.193312233131
 H    1.379089290699    3.277304400608    1.190807634589
 C    2.191151673038   -0.039782003445    1.191188030794
 O    3.234894920356   -0.693023893506    1.188707189482
 N    0.917313584357   -0.581921635038    1.201801264924
 C   -0.140372528456    0.219430395837    1.199308220096
 N   -1.372365644912   -0.384368633243    1.153902396887
 H   -1.381300113233   -1.384062519754    1.323473005452
 H   -2.190943389115    0.142059686157    1.428802521684
 C   -0.071790530022    1.660807235032    1.195824786430
 H   -0.960314245707    2.292124826276    1.186342832403
 H    3.216955516647    1.754136670723    1.186864465682
 K   -2.958178832868   -1.266377853497   -3.397718882206
