14

 N    2.289827989449    1.388839411194    1.238426089039
 C    1.204381046546    2.211598381022    1.241567960260
 H    1.395901886428    3.286655353521    1.239063361718
 C    2.207964268767   -0.030431050532    1.239443757923
 O    3.251707516085   -0.683672940593    1.236962916611
 N    0.934126180086   -0.572570682125    1.250056992053
 C   -0.123559932727    0.228781348750    1.247563947225
 N   -1.355553049183   -0.375017680330    1.202158124016
 H   -1.364487517504   -1.374711566841    1.371728732581
 H   -2.174130793386    0.151410639070    1.477058248813
 C   -0.054977934293    1.670158187945    1.244080513559
 H   -0.943501649978    2.301475779189    1.234598559532
 H    3.233768112376    1.763487623636    1.235120192811
 K   -3.006093306035   -1.293027276921   -3.535243615448
