14

 N    2.306640585178    1.398190364107    1.286681816168
 C    1.221193642275    2.220949333935    1.289823687389
 H    1.412714482157    3.296006306434    1.287319088847
 C    2.224776864496   -0.021080097619    1.287699485052
 O    3.268520111814   -0.674321987680    1.285218643740
 N    0.950938775815   -0.563219729212    1.298312719182
 C   -0.106747336998    0.238132301663    1.295819674354
 N   -1.338740453454   -0.365666727417    1.250413851145
 H   -1.347674921775   -1.365360613928    1.419984459710
 H   -2.157318197657    0.160761591983    1.525313975942
 C   -0.038165338564    1.679509140858    1.292336240688
 H   -0.926689054249    2.310826732102    1.282854286661
 H    3.250580708105    1.772838576549    1.283375919940
 K   -3.054007779203   -1.319676700345   -3.672768348690
