14

 N    2.348672074500    1.421567746389    1.407321133991
 C    1.263225131597    2.244326716217    1.410463005212
 H    1.454745971479    3.319383688716    1.407958406670
 C    2.266808353818    0.002297284663    1.408338802875
 O    3.310551601136   -0.650944605398    1.405857961563
 N    0.992970265137   -0.539842346930    1.418952037005
 C   -0.064715847676    0.261509683945    1.416458992177
 N   -1.296708964132   -0.342289345135    1.371053168968
 H   -1.305643432453   -1.341983231646    1.540623777533
 H   -2.115286708335    0.184138974265    1.645953293765
 C    0.003866150758    1.702886523140    1.412975558511
 H   -0.884657564927    2.334204114384    1.403493604484
 H    3.292612197427    1.796215958831    1.404015237763
 K   -3.173793962121   -1.386300258905   -4.016580181795
