14

 N    2.365484670228    1.430918699302    1.455576861120
 C    1.280037727325    2.253677669130    1.458718732341
 H    1.471558567207    3.328734641629    1.456214133799
 C    2.283620949546    0.011648237576    1.456594530004
 O    3.327364196864   -0.641593652485    1.454113688692
 N    1.009782860865   -0.530491394017    1.467207764134
 C   -0.047903251948    0.270860636858    1.464714719306
 N   -1.279896368404   -0.332938392222    1.419308896097
 H   -1.288830836725   -1.332632278733    1.588879504662
 H   -2.098474112607    0.193489927178    1.694209020894
 C    0.020678746486    1.712237476053    1.461231285640
 H   -0.867844969199    2.343555067297    1.451749331613
 H    3.309424793155    1.805566911744    1.452270964892
 K   -3.221708435289   -1.412949682329   -4.154104915037
