14

 N    2.382297265957    1.440269652215    1.503832588249
 C    1.296850323054    2.263028622043    1.506974459470
 H    1.488371162936    3.338085594542    1.504469860928
 C    2.300433545275    0.020999190489    1.504850257133
 O    3.344176792593   -0.632242699572    1.502369415821
 N    1.026595456594   -0.521140441104    1.515463491263
 C   -0.031090656219    0.280211589771    1.512970446435
 N   -1.263083772675   -0.323587439309    1.467564623226
 H   -1.272018240996   -1.323281325820    1.637135231791
 H   -2.081661516878    0.202840880091    1.742464748023
 C    0.037491342215    1.721588428966    1.509487012769
 H   -0.851032373470    2.352906020210    1.500005058742
 H    3.326237388884    1.814917864657    1.500526692021
 K   -3.269622908456   -1.439599105753   -4.291629648279
