14

 N    2.399109861686    1.449620605128    1.552088315378
 C    1.313662918783    2.272379574956    1.555230186599
 H    1.505183758665    3.347436547455    1.552725588057
 C    2.317246141004    0.030350143402    1.553105984262
 O    3.360989388322   -0.622891746659    1.550625142950
 N    1.043408052323   -0.511789488191    1.563719218392
 C   -0.014278060490    0.289562542684    1.561226173564
 N   -1.246271176946   -0.314236486396    1.515820350355
 H   -1.255205645267   -1.313930372907    1.685390958920
 H   -2.064848921149    0.212191833004    1.790720475152
 C    0.054303937944    1.730939381879    1.557742739898
 H   -0.834219777741    2.362256973123    1.548260785871
 H    3.343049984613    1.824268817570    1.548782419150
 K   -3.317537381624   -1.466248529177   -4.429154381521
