14

 N    2.407516159550    1.454296081584    1.576216178943
 C    1.322069216647    2.277055051412    1.579358050164
 H    1.513590056529    3.352112023911    1.576853451622
 C    2.325652438868    0.035025619858    1.577233847827
 O    3.369395686186   -0.618216270203    1.574753006515
 N    1.051814350187   -0.507114011735    1.587847081957
 C   -0.005871762626    0.294238019140    1.585354037129
 N   -1.237864879082   -0.309561009940    1.539948213920
 H   -1.246799347403   -1.309254896451    1.709518822485
 H   -2.056442623285    0.216867309460    1.814848338717
 C    0.062710235808    1.735614858335    1.581870603463
 H   -0.825813479877    2.366932449579    1.572388649436
 H    3.351456282477    1.828944294026    1.572910282715
 K   -3.341494618207   -1.479573240889   -4.497916748142
