14

 N    2.415922457415    1.458971558041    1.600344042507
 C    1.330475514512    2.281730527869    1.603485913728
 H    1.521996354394    3.356787500368    1.600981315186
 C    2.334058736733    0.039701096315    1.601361711391
 O    3.377801984051   -0.613540793746    1.598880870079
 N    1.060220648052   -0.502438535278    1.611974945521
 C    0.002534535239    0.298913495597    1.609481900693
 N   -1.229458581217   -0.304885533483    1.564076077484
 H   -1.238393049538   -1.304579419994    1.733646686049
 H   -2.048036325420    0.221542785917    1.838976202281
 C    0.071116533673    1.740290334792    1.605998467027
 H   -0.817407182012    2.371607926036    1.596516513000
 H    3.359862580342    1.833619770483    1.597038146279
 K   -3.365451854791   -1.492897952602   -4.566679114763
