14

 N    2.474766542465    1.491699893236    1.769239087459
 C    1.389319599562    2.314458863064    1.772380958680
 H    1.580840439444    3.389515835563    1.769876360138
 C    2.392902821783    0.072429431510    1.770256756343
 O    3.436646069101   -0.580812458551    1.767775915031
 N    1.119064733102   -0.469710200083    1.780869990473
 C    0.061378620289    0.331641830792    1.778376945645
 N   -1.170614496167   -0.272157198288    1.732971122436
 H   -1.179548964488   -1.271851084799    1.902541731001
 H   -1.989192240370    0.254271121112    2.007871247233
 C    0.129960618723    1.773018669987    1.774893511979
 H   -0.758563096962    2.404336261231    1.765411557952
 H    3.418706665392    1.866348105678    1.765933191231
 K   -3.533152510877   -1.586170934586   -5.048015681110
