14

 N    2.491579138194    1.501050846148    1.817494814588
 C    1.406132195291    2.323809815976    1.820636685809
 H    1.597653035173    3.398866788475    1.818132087267
 C    2.409715417512    0.081780384422    1.818512483472
 O    3.453458664830   -0.571461505639    1.816031642160
 N    1.135877328831   -0.460359247171    1.829125717602
 C    0.078191216018    0.340992783704    1.826632672774
 N   -1.153801900438   -0.262806245376    1.781226849565
 H   -1.162736368759   -1.262500131887    1.950797458130
 H   -1.972379644641    0.263622074024    2.056126974362
 C    0.146773214452    1.782369622899    1.823149239108
 H   -0.741750501233    2.413687214143    1.813667285081
 H    3.435519261121    1.875699058590    1.814188918360
 K   -3.581066984044   -1.612820358010   -5.185540414352
