14

 N    2.525204329652    1.519752751974    1.914006268847
 C    1.439757386749    2.342511721802    1.917148140068
 H    1.631278226631    3.417568694301    1.914643541526
 C    2.443340608970    0.100482290248    1.915023937731
 O    3.487083856288   -0.552759599813    1.912543096419
 N    1.169502520289   -0.441657341345    1.925637171861
 C    0.111816407476    0.359694689530    1.923144127033
 N   -1.120176708980   -0.244104339550    1.877738303824
 H   -1.129111177301   -1.243798226061    2.047308912389
 H   -1.938754453183    0.282323979850    2.152638428621
 C    0.180398405910    1.801071528725    1.919660693367
 H   -0.708125309775    2.432389119969    1.910178739340
 H    3.469144452579    1.894400964416    1.910700372619
 K   -3.676895930379   -1.666119204858   -5.460589880836
