14

 N    2.550423223245    1.533779181344    1.986389859540
 C    1.464976280342    2.356538151172    1.989531730761
 H    1.656497120224    3.431595123671    1.987027132219
 C    2.468559502563    0.114508719618    1.987407528424
 O    3.512302749881   -0.538733170443    1.984926687112
 N    1.194721413882   -0.427630911975    1.998020762554
 C    0.137035301069    0.373721118900    1.995527717726
 N   -1.094957815387   -0.230077910180    1.950121894517
 H   -1.103892283708   -1.229771796691    2.119692503082
 H   -1.913535559590    0.296350409220    2.225022019314
 C    0.205617299503    1.815097958095    1.992044284060
 H   -0.682906416182    2.446415549339    1.982562330033
 H    3.494363346172    1.908427393786    1.983083963312
 K   -3.748767640130   -1.706093339994   -5.666876980699
