14

 N    2.558829521109    1.538454657800    2.010517723105
 C    1.473382578206    2.361213627628    2.013659594326
 H    1.664903418088    3.436270600127    2.011154995784
 C    2.476965800427    0.119184196074    2.011535391989
 O    3.520709047745   -0.534057693987    2.009054550677
 N    1.203127711746   -0.422955435519    2.022148626119
 C    0.145441598933    0.378396595356    2.019655581291
 N   -1.086551517523   -0.225402433724    1.974249758082
 H   -1.095485985844   -1.225096320235    2.143820366647
 H   -1.905129261726    0.301025885676    2.249149882879
 C    0.214023597367    1.819773434551    2.016172147625
 H   -0.674500118318    2.451091025795    2.006690193598
 H    3.502769644036    1.913102870242    2.007211826877
 K   -3.772724876714   -1.719418051706   -5.735639347320
