14

 N    2.600861010431    1.561832040082    2.131157040928
 C    1.515414067528    2.384591009910    2.134298912149
 H    1.706934907410    3.459647982409    2.131794313607
 C    2.518997289749    0.142561578356    2.132174709812
 O    3.562740537067   -0.510680311705    2.129693868500
 N    1.245159201068   -0.399578053237    2.142787943942
 C    0.187473088255    0.401773977638    2.140294899114
 N   -1.044520028201   -0.202025051442    2.094889075905
 H   -1.053454496522   -1.201718937953    2.264459684470
 H   -1.863097772404    0.324403267958    2.369789200702
 C    0.256055086689    1.843150816833    2.136811465448
 H   -0.632468628996    2.474468408077    2.127329511421
 H    3.544801133358    1.936480252524    2.127851144700
 K   -3.892511059632   -1.786041610266   -6.079451180425
