14

 N    2.617673606160    1.571182992995    2.179412768057
 C    1.532226663257    2.393941962823    2.182554639278
 H    1.723747503139    3.468998935322    2.180050040736
 C    2.535809885478    0.151912531269    2.180430436941
 O    3.579553132796   -0.501329358792    2.177949595629
 N    1.261971796797   -0.390227100324    2.191043671071
 C    0.204285683984    0.411124930551    2.188550626243
 N   -1.027707432472   -0.192674098529    2.143144803034
 H   -1.036641900793   -1.192367985040    2.312715411599
 H   -1.846285176675    0.333754220871    2.418044927831
 C    0.272867682418    1.852501769746    2.185067192577
 H   -0.615656033267    2.483819360990    2.175585238550
 H    3.561613729087    1.945831205437    2.176106871829
 K   -3.940425532800   -1.812691033690   -6.216975913667
