14

 N    2.626079904024    1.575858469451    2.203540631622
 C    1.540632961121    2.398617439279    2.206682502843
 H    1.732153801003    3.473674411778    2.204177904301
 C    2.544216183342    0.156588007725    2.204558300506
 O    3.587959430660   -0.496653882336    2.202077459194
 N    1.270378094661   -0.385551623868    2.215171534636
 C    0.212691981848    0.415800407007    2.212678489808
 N   -1.019301134608   -0.187998622073    2.167272666599
 H   -1.028235602929   -1.187692508584    2.336843275164
 H   -1.837878878811    0.338429697327    2.442172791396
 C    0.281273980282    1.857177246202    2.209195056142
 H   -0.607249735403    2.488494837446    2.199713102115
 H    3.570020026951    1.950506681893    2.200234735394
 K   -3.964382769384   -1.826015745402   -6.285738280288
