14

 N    2.634486201889    1.580533945908    2.227668495186
 C    1.549039258986    2.403292915736    2.230810366407
 H    1.740560098868    3.478349888235    2.228305767865
 C    2.552622481207    0.161263484182    2.228686164070
 O    3.596365728525   -0.491978405879    2.226205322758
 N    1.278784392526   -0.380876147411    2.239299398200
 C    0.221098279713    0.420475883464    2.236806353372
 N   -1.010894836743   -0.183323145616    2.191400530163
 H   -1.019829305064   -1.183017032127    2.360971138728
 H   -1.829472580946    0.343105173784    2.466300654960
 C    0.289680278147    1.861852722659    2.233322919706
 H   -0.598843437538    2.493170313903    2.223840965679
 H    3.578426324816    1.955182158350    2.224362598958
 K   -3.988340005967   -1.839340457114   -6.354500646909
