14

 N    2.659705095482    1.594560375277    2.300052085880
 C    1.574258152579    2.417319345105    2.303193957101
 H    1.765778992461    3.492376317604    2.300689358559
 C    2.577841374800    0.175289913551    2.301069754764
 O    3.621584622118   -0.477951976510    2.298588913452
 N    1.304003286119   -0.366849718042    2.311682988894
 C    0.246317173306    0.434502312833    2.309189944066
 N   -0.985675943150   -0.169296716247    2.263784120857
 H   -0.994610411471   -1.168990602758    2.433354729422
 H   -1.804253687353    0.357131603153    2.538684245654
 C    0.314899171740    1.875879152028    2.305706510400
 H   -0.573624543945    2.507196743272    2.296224556373
 H    3.603645218409    1.969208587719    2.296746189652
 K   -4.060211715718   -1.879314592250   -6.560787746772
