16

 N   -0.392506439449    1.362862542185    0.034132955133
 C    0.978108972960    1.562337220026    0.030501320757
 H    1.299893269298    2.606082150902    0.051920136450
 C   -0.992221708878    0.109747382632    0.009602964477
 O   -2.209995740410   -0.057195323435    0.010599045251
 N   -0.066915693267   -0.927030227210   -0.018053572512
 H   -0.461489401130   -1.865544537059   -0.038562445910
 C    1.338814685128   -0.840991514892   -0.026501623303
 O    2.027135357556   -1.864608736694   -0.054609561856
 C    1.868583866193    0.527397353842    0.002104745831
 C    3.360873759799    0.711255679304   -0.002726063995
 H    3.622421388879    1.779683556172    0.019928104152
 H    3.801018073389    0.252935459882   -0.901834315441
 H    3.811878966508    0.212769193998    0.869210772918
 H   -1.034812662778    2.147115580359    0.054028373423
NA   -3.497949241645   -0.233758821438    0.011652529466
