16

 N   -0.346657305218    1.369147927110    0.034095452739
 C    1.023958107191    1.568622604951    0.030463818363
 H    1.345742403529    2.612367535827    0.051882634056
 C   -0.946372574647    0.116032767557    0.009565462083
 O   -2.164146606179   -0.050909938510    0.010561542857
 N   -0.021066559036   -0.920744842285   -0.018091074906
 H   -0.415640266899   -1.859259152134   -0.038599948304
 C    1.384663819359   -0.834706129967   -0.026539125697
 O    2.072984491787   -1.858323351769   -0.054647064250
 C    1.914433000424    0.533682738767    0.002067243437
 C    3.406722894030    0.717541064229   -0.002763566389
 H    3.668270523110    1.785968941097    0.019890601758
 H    3.846867207620    0.259220844807   -0.901871817835
 H    3.857728100739    0.219054578923    0.869173270524
 H   -0.988963528547    2.153400965284    0.053990871029
NA   -3.749320146161   -0.268218859129    0.011858138815
