16

 N    0.937118453229    1.545138704996    0.033045385717
 C    2.307733865638    1.744613382837    0.029413751341
 H    2.629518161976    2.788358313713    0.050832567034
 C    0.337403183800    0.292023545443    0.008515395061
 O   -0.880370847732    0.125080839376    0.009511475835
 N    1.262709199411   -0.744754064399   -0.019141141928
 H    0.868135491548   -1.683268374248   -0.039650015326
 C    2.668439577806   -0.658715352081   -0.027589192719
 O    3.356760250234   -1.682332573883   -0.055697131272
 C    3.198208758871    0.709673516653    0.001017176415
 C    4.690498652477    0.893531842115   -0.003813633411
 H    4.952046281557    1.961959718983    0.018840534736
 H    5.130642966067    0.435211622693   -0.902921884857
 H    5.141503859186    0.395045356809    0.868123203502
 H    0.294812229900    2.329391743170    0.052940804007
NA  -10.787705472617   -1.233099914494    0.017615200570
