16

 N   -0.270242081501    1.379623568651    0.034032948750
 C    1.100373330908    1.579098246492    0.030401314374
 H    1.422157627246    2.622843177368    0.051820130067
 C   -0.869957350930    0.126508409098    0.009502958094
 O   -2.087731382462   -0.040434296969    0.010499038868
 N    0.055348664681   -0.910269200744   -0.018153578895
 H   -0.339225043182   -1.848783510593   -0.038662452293
 C    1.461079043076   -0.824230488426   -0.026601629686
 O    2.149399715504   -1.847847710228   -0.054709568239
 C    1.990848224141    0.544158380308    0.002004739448
 C    3.483138117747    0.728016705770   -0.002826070378
 H    3.744685746827    1.796444582638    0.019828097769
 H    3.923282431337    0.269696486348   -0.901934321824
 H    3.934143324456    0.229530220464    0.869110766535
 H   -0.912548304830    2.163876606825    0.053928367040
NA   -4.168271653688   -0.325652255282    0.012200821062
