16

 N   -0.254959036758    1.381718696959    0.034020447952
 C    1.115656375651    1.581193374800    0.030388813576
 H    1.437440671989    2.624938305676    0.051807629269
 C   -0.854674306187    0.128603537406    0.009490457296
 O   -2.072448337719   -0.038339168661    0.010486538070
 N    0.070631709424   -0.908174072436   -0.018166079693
 H   -0.323941998439   -1.846688382285   -0.038674953091
 C    1.476362087819   -0.822135360118   -0.026614130484
 O    2.164682760247   -1.845752581920   -0.054722069037
 C    2.006131268884    0.546253508616    0.001992238650
 C    3.498421162490    0.730111834078   -0.002838571176
 H    3.759968791570    1.798539710946    0.019815596971
 H    3.938565476080    0.271791614656   -0.901946822622
 H    3.949426369199    0.231625348772    0.869098265737
 H   -0.897265260087    2.165971735133    0.053915866242
NA   -4.252061955194   -0.337138934513    0.012269357512
