16

 N   -0.193826857784    1.390099210192    0.033970444760
 C    1.176788554625    1.589573888033    0.030338810384
 H    1.498572850963    2.633318818909    0.051757626077
 C   -0.793542127213    0.136984050639    0.009440454104
 O   -2.011316158745   -0.029958655428    0.010436534878
 N    0.131763888398   -0.899793559203   -0.018216082885
 H   -0.262809819465   -1.838307869052   -0.038724956283
 C    1.537494266793   -0.813754846885   -0.026664133676
 O    2.225814939221   -1.837372068687   -0.054772072229
 C    2.067263447858    0.554634021849    0.001942235458
 C    3.559553341464    0.738492347311   -0.002888574368
 H    3.821100970544    1.806920224179    0.019765593779
 H    3.999697655054    0.280172127889   -0.901996825814
 H    4.010558548173    0.240005862005    0.869048262545
 H   -0.836133081113    2.174352248366    0.053865863050
NA   -4.587223161215   -0.383085651435    0.012543503310
