16

 N   -0.132694678810    1.398479723424    0.033920441569
 C    1.237920733599    1.597954401265    0.030288807193
 H    1.559705029937    2.641699332141    0.051707622886
 C   -0.732409948239    0.145364563871    0.009390450913
 O   -1.950183979771   -0.021578142196    0.010386531687
 N    0.192896067372   -0.891413045971   -0.018266086076
 H   -0.201677640491   -1.829927355820   -0.038774959474
 C    1.598626445767   -0.805374333653   -0.026714136867
 O    2.286947118195   -1.828991555455   -0.054822075420
 C    2.128395626832    0.563014535081    0.001892232267
 C    3.620685520438    0.746872860543   -0.002938577559
 H    3.882233149518    1.815300737411    0.019715590588
 H    4.060829834028    0.288552641121   -0.902046829005
 H    4.071690727147    0.248386375237    0.868998259354
 H   -0.775000902139    2.182732761598    0.053815859859
NA   -4.922384367237   -0.429032368357    0.012817649107
