16

 N   -0.086845544580    1.404765108349    0.033882939175
 C    1.283769867829    1.604239786190    0.030251304799
 H    1.605554164167    2.647984717066    0.051670120492
 C   -0.686560814009    0.151649948796    0.009352948519
 O   -1.904334845541   -0.015292757271    0.010349029293
 N    0.238745201602   -0.885127661046   -0.018303588470
 H   -0.155828506261   -1.823641970895   -0.038812461868
 C    1.644475579997   -0.799088948728   -0.026751639261
 O    2.332796252425   -1.822706170530   -0.054859577814
 C    2.174244761062    0.569299920006    0.001854729873
 C    3.666534654668    0.753158245468   -0.002976079953
 H    3.928082283748    1.821586122336    0.019678088194
 H    4.106678968258    0.294838026046   -0.902084331399
 H    4.117539861377    0.254671760162    0.868960756960
 H   -0.729151767909    2.189018146523    0.053778357465
NA   -5.173755271753   -0.463492406048    0.013023258456
