16

 N   -0.071562499837    1.406860236657    0.033870438377
 C    1.299052912572    1.606334914498    0.030238804001
 H    1.620837208910    2.650079845374    0.051657619694
 C   -0.671277769266    0.153745077104    0.009340447721
 O   -1.889051800798   -0.013197628963    0.010336528495
 N    0.254028246345   -0.883032532738   -0.018316089268
 H   -0.140545461518   -1.821546842587   -0.038824962666
 C    1.659758624740   -0.796993820420   -0.026764140059
 O    2.348079297168   -1.820611042222   -0.054872078612
 C    2.189527805805    0.571395048314    0.001842229075
 C    3.681817699411    0.755253373776   -0.002988580751
 H    3.943365328491    1.823681250644    0.019665587396
 H    4.121962013001    0.296933154354   -0.902096832197
 H    4.132822906120    0.256766888470    0.868948256162
 H   -0.713868723166    2.191113274831    0.053765856667
NA   -5.257545573259   -0.474979085279    0.013091794905
