16

 N    0.020135768624    1.419431006506    0.033795433590
 C    1.390751181033    1.618905684347    0.030163799214
 H    1.712535477371    2.662650615223    0.051582614907
 C   -0.579579500805    0.166315846953    0.009265442934
 O   -1.797353532337   -0.000626859114    0.010261523708
 N    0.345726514806   -0.870461762889   -0.018391094055
 H   -0.048847193057   -1.808976072738   -0.038899967453
 C    1.751456893201   -0.784423050571   -0.026839144846
 O    2.439777565629   -1.808040272373   -0.054947083399
 C    2.281226074266    0.583965818163    0.001767224288
 C    3.773515967872    0.767824143625   -0.003063585538
 H    4.035063596952    1.836252020493    0.019590582609
 H    4.213660281462    0.309503924203   -0.902171836984
 H    4.224521174581    0.269337658319    0.868873251375
 H   -0.622170454705    2.203684044680    0.053690851880
NA   -5.760287382291   -0.543899160662    0.013503013602
