16

 N    0.096550992341    1.429906648047    0.033732929601
 C    1.467166404750    1.629381325888    0.030101295225
 H    1.788950701088    2.673126256764    0.051520110918
 C   -0.503164277088    0.176791488494    0.009202938945
 O   -1.720938308620    0.009848782427    0.010199019719
 N    0.422141738523   -0.859986121348   -0.018453598044
 H    0.027568030660   -1.798500431197   -0.038962471442
 C    1.827872116918   -0.773947409030   -0.026901648835
 O    2.516192789346   -1.797564630832   -0.055009587388
 C    2.357641297983    0.594441459704    0.001704720299
 C    3.849931191589    0.778299785166   -0.003126089527
 H    4.111478820669    1.846727662034    0.019528078620
 H    4.290075505179    0.319979565744   -0.902234340973
 H    4.300936398298    0.279813299860    0.868810747386
 H   -0.545755230988    2.214159686221    0.053628347891
NA   -6.179238889819   -0.601332556815    0.013845695849
