16

 N    0.188249260802    1.442477417896    0.033657924813
 C    1.558864673211    1.641952095737    0.030026290437
 H    1.880648969549    2.685697026613    0.051445106130
 C   -0.411466008627    0.189362258343    0.009127934157
 O   -1.629240040159    0.022419552276    0.010124014931
 N    0.513840006984   -0.847415351499   -0.018528602832
 H    0.119266299121   -1.785929661348   -0.039037476230
 C    1.919570385379   -0.761376639181   -0.026976653623
 O    2.607891057807   -1.784993860983   -0.055084592176
 C    2.449339566444    0.607012229553    0.001629715511
 C    3.941629460050    0.790870555015   -0.003201094315
 H    4.203177089130    1.859298431883    0.019453073832
 H    4.381773773640    0.332550335593   -0.902309345761
 H    4.392634666759    0.292384069709    0.868735742598
 H   -0.454056962527    2.226730456070    0.053553343103
NA   -6.681980698851   -0.670252632198    0.014256914546
