16

 N    0.203532305545    1.444572546204    0.033645424015
 C    1.574147717954    1.644047224045    0.030013789639
 H    1.895932014292    2.687792154921    0.051432605332
 C   -0.396182963884    0.191457386651    0.009115433359
 O   -1.613956995416    0.024514680584    0.010111514133
 N    0.529123051727   -0.845320223191   -0.018541103630
 H    0.134549343864   -1.783834533040   -0.039049977028
 C    1.934853430122   -0.759281510873   -0.026989154421
 O    2.623174102550   -1.782898732675   -0.055097092974
 C    2.464622611187    0.609107357861    0.001617214713
 C    3.956912504793    0.792965683323   -0.003213595113
 H    4.218460133873    1.861393560191    0.019440573034
 H    4.397056818383    0.334645463901   -0.902321846559
 H    4.407917711502    0.294479198017    0.868723241800
 H   -0.438773917784    2.228825584378    0.053540842305
NA   -6.765771000357   -0.681739311429    0.014325450996
