16

 N    0.234098395032    1.448762802820    0.033620422420
 C    1.604713807441    1.648237480661    0.029988788044
 H    1.926498103779    2.691982411537    0.051407603737
 C   -0.365616874397    0.195647643267    0.009090431764
 O   -1.583390905929    0.028704937200    0.010086512538
 N    0.559689141214   -0.841129966575   -0.018566105225
 H    0.165115433351   -1.779644276424   -0.039074978623
 C    1.965419519609   -0.755091254257   -0.027014156016
 O    2.653740192037   -1.778708476059   -0.055122094569
 C    2.495188700674    0.613297614477    0.001592213118
 C    3.987478594280    0.797155939939   -0.003238596708
 H    4.249026223360    1.865583816807    0.019415571439
 H    4.427622907870    0.338835720517   -0.902346848154
 H    4.438483800989    0.298669454633    0.868698240205
 H   -0.408207828297    2.233015840994    0.053515840710
NA   -6.933351603367   -0.704712669890    0.014462523895
