16

 N    0.249381439775    1.450857931128    0.033607921622
 C    1.619996852184    1.650332608969    0.029976287246
 H    1.941781148522    2.694077539845    0.051395102939
 C   -0.350333829654    0.197742771575    0.009077930966
 O   -1.568107861186    0.030800065508    0.010074011740
 N    0.574972185957   -0.839034838267   -0.018578606023
 H    0.180398478094   -1.777549148116   -0.039087479421
 C    1.980702564352   -0.752996125949   -0.027026656814
 O    2.669023236780   -1.776613347751   -0.055134595367
 C    2.510471745417    0.615392742785    0.001579712320
 C    4.002761639023    0.799251068247   -0.003251097506
 H    4.264309268103    1.867678945115    0.019403070641
 H    4.442905952613    0.340930848825   -0.902359348952
 H    4.453766845732    0.300764582941    0.868685739407
 H   -0.392924783554    2.235110969302    0.053503339912
NA   -7.017141904873   -0.716199349120    0.014531060344
