16

 N    0.325796663492    1.461333572669    0.033545417632
 C    1.696412075901    1.660808250510    0.029913783256
 H    2.018196372239    2.704553181386    0.051332598949
 C   -0.273918605937    0.208218413116    0.009015426976
 O   -1.491692637469    0.041275707049    0.010011507750
 N    0.651387409674   -0.828559196726   -0.018641110013
 H    0.256813701811   -1.767073506575   -0.039149983411
 C    2.057117788069   -0.742520484408   -0.027089160804
 O    2.745438460497   -1.766137706210   -0.055197099357
 C    2.586886969134    0.625868384326    0.001517208330
 C    4.079176862740    0.809726709788   -0.003313601496
 H    4.340724491820    1.878154586656    0.019340566651
 H    4.519321176330    0.351406490366   -0.902421852942
 H    4.530182069449    0.311240224482    0.868623235417
 H   -0.316509559837    2.245586610843    0.053440835922
NA   -7.436093412400   -0.773632745273    0.014873742592
