16

 N    0.356362752979    1.465523829285    0.033520416037
 C    1.726978165388    1.664998507126    0.029888781661
 H    2.048762461726    2.708743438002    0.051307597354
 C   -0.243352516450    0.212408669732    0.008990425381
 O   -1.461126547982    0.045465963665    0.009986506155
 N    0.681953499161   -0.824368940110   -0.018666111608
 H    0.287379791298   -1.762883249959   -0.039174985006
 C    2.087683877556   -0.738330227792   -0.027114162399
 O    2.776004549984   -1.761947449594   -0.055222100952
 C    2.617453058621    0.630058640942    0.001492206735
 C    4.109742952227    0.813916966404   -0.003338603091
 H    4.371290581307    1.882344843272    0.019315565056
 H    4.549887265817    0.355596746982   -0.902446854537
 H    4.560748158936    0.315430481098    0.868598233822
 H   -0.285943470350    2.249776867459    0.053415834327
NA   -7.603674015411   -0.796606103734    0.015010815490
