16

 N    0.371645797723    1.467618957594    0.033507915239
 C    1.742261210132    1.667093635435    0.029876280863
 H    2.064045506470    2.710838566311    0.051295096556
 C   -0.228069471706    0.214503798041    0.008977924583
 O   -1.445843503238    0.047561091974    0.009974005357
 N    0.697236543905   -0.822273811801   -0.018678612406
 H    0.302662836042   -1.760788121650   -0.039187485804
 C    2.102966922300   -0.736235099483   -0.027126663197
 O    2.791287594728   -1.759852321285   -0.055234601750
 C    2.632736103365    0.632153769251    0.001479705937
 C    4.125025996971    0.816012094713   -0.003351103889
 H    4.386573626051    1.884439971581    0.019303064258
 H    4.565170310561    0.357691875291   -0.902459355335
 H    4.576031203680    0.317525609407    0.868585733024
 H   -0.270660425606    2.251871995768    0.053403333529
NA   -7.687464316916   -0.808092782965    0.015079351940
