16

 N    0.432777976696    1.475999470826    0.033457912047
 C    1.803393389105    1.675474148667    0.029826277671
 H    2.125177685443    2.719219079543    0.051245093364
 C   -0.166937292733    0.222884311273    0.008927921391
 O   -1.384711324265    0.055941605206    0.009924002165
 N    0.758368722878   -0.813893298569   -0.018728615598
 H    0.363795015015   -1.752407608418   -0.039237488996
 C    2.164099101273   -0.727854586251   -0.027176666389
 O    2.852419773701   -1.751471808053   -0.055284604942
 C    2.693868282338    0.640534282483    0.001429702745
 C    4.186158175944    0.824392607945   -0.003401107081
 H    4.447705805024    1.892820484813    0.019253061066
 H    4.626302489534    0.366072388523   -0.902509358527
 H    4.637163382653    0.325906122639    0.868535729832
 H   -0.209528246633    2.260252509000    0.053353330337
NA   -8.022625522938   -0.854039499887    0.015353497738
