16

 N    0.509193200414    1.486475112367    0.033395408058
 C    1.879808612823    1.685949790208    0.029763773682
 H    2.201592909161    2.729694721084    0.051182589375
 C   -0.090522069015    0.233359952814    0.008865417402
 O   -1.308296100547    0.066417246747    0.009861498176
 N    0.834783946596   -0.803417657028   -0.018791119587
 H    0.440210238733   -1.741931966877   -0.039299992985
 C    2.240514324991   -0.717378944710   -0.027239170378
 O    2.928834997419   -1.740996166512   -0.055347108931
 C    2.770283506056    0.651009924024    0.001367198756
 C    4.262573399662    0.834868249486   -0.003463611070
 H    4.524121028742    1.903296126354    0.019190557077
 H    4.702717713252    0.376548030064   -0.902571862516
 H    4.713578606371    0.336381764180    0.868473225843
 H   -0.133113022915    2.270728150541    0.053290826348
NA   -8.441577030465   -0.911472896039    0.015696179985
