16

 N    0.524476245157    1.488570240675    0.033382907260
 C    1.895091657566    1.688044918516    0.029751272884
 H    2.216875953904    2.731789849392    0.051170088577
 C   -0.075239024272    0.235455081122    0.008852916604
 O   -1.293013055804    0.068512375055    0.009848997378
 N    0.850066991339   -0.801322528720   -0.018803620385
 H    0.455493283476   -1.739836838569   -0.039312493783
 C    2.255797369734   -0.715283816402   -0.027251671176
 O    2.944118042162   -1.738901038204   -0.055359609729
 C    2.785566550799    0.653105052332    0.001354697958
 C    4.277856444405    0.836963377794   -0.003476111868
 H    4.539404073485    1.905391254662    0.019178056279
 H    4.718000757995    0.378643158372   -0.902584363314
 H    4.728861651114    0.338476892488    0.868460725045
 H   -0.117829978172    2.272823278849    0.053278325550
NA   -8.525367331971   -0.922959575270    0.015764716435
