16

 N    0.539759289900    1.490665368983    0.033370406462
 C    1.910374702309    1.690140046824    0.029738772086
 H    2.232158998647    2.733884977700    0.051157587779
 C   -0.059955979529    0.237550209430    0.008840415806
 O   -1.277730011061    0.070607503363    0.009836496580
 N    0.865350036082   -0.799227400412   -0.018816121183
 H    0.470776328219   -1.737741710261   -0.039324994581
 C    2.271080414477   -0.713188688094   -0.027264171974
 O    2.959401086905   -1.736805909896   -0.055372110527
 C    2.800849595542    0.655200180640    0.001342197160
 C    4.293139489148    0.839058506102   -0.003488612666
 H    4.554687118228    1.907486382970    0.019165555481
 H    4.733283802738    0.380738286680   -0.902596864112
 H    4.744144695857    0.340572020796    0.868448224247
 H   -0.102546933429    2.274918407157    0.053265824752
NA   -8.609157633476   -0.934446254501    0.015833252884
