16

 N    0.555042334644    1.492760497292    0.033357905664
 C    1.925657747053    1.692235175133    0.029726271288
 H    2.247442043391    2.735980106009    0.051145086981
 C   -0.044672934785    0.239645337739    0.008827915008
 O   -1.262446966317    0.072702631672    0.009823995782
 N    0.880633080826   -0.797132272103   -0.018828621981
 H    0.486059372963   -1.735646581952   -0.039337495379
 C    2.286363459221   -0.711093559785   -0.027276672772
 O    2.974684131649   -1.734710781587   -0.055384611325
 C    2.816132640286    0.657295308949    0.001329696362
 C    4.308422533892    0.841153634411   -0.003501113464
 H    4.569970162972    1.909581511279    0.019153054683
 H    4.748566847482    0.382833414989   -0.902609364910
 H    4.759427740601    0.342667149105    0.868435723449
 H   -0.087263888685    2.277013535466    0.053253323954
NA   -8.692947934982   -0.945932933731    0.015901789334
