16

 N    0.570325379387    1.494855625600    0.033345404866
 C    1.940940791796    1.694330303441    0.029713770490
 H    2.262725088134    2.738075234317    0.051132586183
 C   -0.029389890042    0.241740466047    0.008815414210
 O   -1.247163921574    0.074797759980    0.009811494984
 N    0.895916125569   -0.795037143795   -0.018841122779
 H    0.501342417706   -1.733551453644   -0.039349996177
 C    2.301646503964   -0.708998431477   -0.027289173570
 O    2.989967176392   -1.732615653279   -0.055397112123
 C    2.831415685029    0.659390437257    0.001317195564
 C    4.323705578635    0.843248762719   -0.003513614262
 H    4.585253207715    1.911676639587    0.019140553885
 H    4.763849892225    0.384928543297   -0.902621865708
 H    4.774710785344    0.344762277413    0.868423222651
 H   -0.071980843942    2.279108663774    0.053240823156
NA   -8.776738236487   -0.957419612962    0.015970325783
