16

 N    0.600891468874    1.499045882216    0.033320403270
 C    1.971506881283    1.698520560057    0.029688768894
 H    2.293291177621    2.742265490933    0.051107584587
 C    0.001176199445    0.245930722663    0.008790412614
 O   -1.216597832087    0.078988016596    0.009786493388
 N    0.926482215056   -0.790846887179   -0.018866124375
 H    0.531908507193   -1.729361197028   -0.039374997773
 C    2.332212593451   -0.704808174861   -0.027314175166
 O    3.020533265879   -1.728425396663   -0.055422113719
 C    2.861981774516    0.663580693873    0.001292193968
 C    4.354271668122    0.847439019335   -0.003538615858
 H    4.615819297202    1.915866896203    0.019115552289
 H    4.794415981712    0.389118799913   -0.902646867304
 H    4.805276874831    0.348952534029    0.868398221055
 H   -0.041414754455    2.283298920390    0.053215821560
NA   -8.944318839498   -0.980392971423    0.016107398682
