16

 N    0.707872782078    1.513711780373    0.033232897685
 C    2.078488194487    1.713186458214    0.029601263309
 H    2.400272490825    2.756931389090    0.051020079002
 C    0.108157512649    0.260596620820    0.008702907029
 O   -1.109616518883    0.093653914753    0.009698987803
 N    1.033463528260   -0.776180989022   -0.018953629960
 H    0.638889820397   -1.714695298871   -0.039462503358
 C    2.439193906655   -0.690142276704   -0.027401680751
 O    3.127514579083   -1.713759498506   -0.055509619304
 C    2.968963087720    0.678246592030    0.001204688383
 C    4.461252981326    0.862104917492   -0.003626121443
 H    4.722800610406    1.930532794360    0.019028046704
 H    4.901397294916    0.403784698070   -0.902734372889
 H    4.912258188035    0.363618432186    0.868310715470
 H    0.065566558749    2.297964818547    0.053128315975
NA   -9.530850950036   -1.060799726036    0.016587153828
