16

 N    0.723155826822    1.515806908681    0.033220396887
 C    2.093771239231    1.715281586522    0.029588762511
 H    2.415555535569    2.759026517398    0.051007578204
 C    0.123440557393    0.262691749128    0.008690406231
 O   -1.094333474139    0.095749043061    0.009686487005
 N    1.048746573004   -0.774085860714   -0.018966130758
 H    0.654172865141   -1.712600170563   -0.039475004156
 C    2.454476951399   -0.688047148396   -0.027414181549
 O    3.142797623827   -1.711664370198   -0.055522120102
 C    2.984246132464    0.680341720338    0.001192187585
 C    4.476536026070    0.864200045800   -0.003638622241
 H    4.738083655150    1.932627922668    0.019015545906
 H    4.916680339660    0.405879826378   -0.902746873687
 H    4.927541232779    0.365713560494    0.868298214672
 H    0.080849603493    2.300059946855    0.053115815177
NA   -9.614641251541   -1.072286405267    0.016655690278
