16

 N    0.738438871565    1.517902036990    0.033207896089
 C    2.109054283974    1.717376714831    0.029576261713
 H    2.430838580312    2.761121645707    0.050995077406
 C    0.138723602136    0.264786877437    0.008677905433
 O   -1.079050429396    0.097844171370    0.009673986207
 N    1.064029617747   -0.771990732405   -0.018978631556
 H    0.669455909884   -1.710505042254   -0.039487504954
 C    2.469759996142   -0.685952020087   -0.027426682347
 O    3.158080668570   -1.709569241889   -0.055534620900
 C    2.999529177207    0.682436848647    0.001179686787
 C    4.491819070813    0.866295174109   -0.003651123039
 H    4.753366699893    1.934723050977    0.019003045108
 H    4.931963384403    0.407974954687   -0.902759374485
 H    4.942824277522    0.367808688803    0.868285713874
 H    0.096132648236    2.302155075164    0.053103314379
NA   -9.698431553047   -1.083773084498    0.016724226727
