16

 N    0.814854095282    1.528377678530    0.033145392100
 C    2.185469507691    1.727852356371    0.029513757724
 H    2.507253804029    2.771597287247    0.050932573417
 C    0.215138825853    0.275262518977    0.008615401444
 O   -1.002635205679    0.108319812910    0.009611482218
 N    1.140444841464   -0.761515090865   -0.019041135545
 H    0.745871133601   -1.700029400714   -0.039550008943
 C    2.546175219859   -0.675476378547   -0.027489186336
 O    3.234495892287   -1.699093600349   -0.055597124889
 C    3.075944400924    0.692912490187    0.001117182798
 C    4.568234294530    0.876770815649   -0.003713627028
 H    4.829781923610    1.945198692517    0.018940541119
 H    5.008378608120    0.418450596227   -0.902821878474
 H    5.019239501239    0.378284330343    0.868223209885
 H    0.172547871953    2.312630716704    0.053040810390
NA  -10.117383060574   -1.141206480650    0.017066908975
