16

 N    0.830137140026    1.530472806839    0.033132891302
 C    2.200752552434    1.729947484680    0.029501256926
 H    2.522536848773    2.773692415556    0.050920072619
 C    0.230421870597    0.277357647286    0.008602900646
 O   -0.987352160935    0.110414941219    0.009598981420
 N    1.155727886208   -0.759419962556   -0.019053636343
 H    0.761154178345   -1.697934272405   -0.039562509741
 C    2.561458264603   -0.673381250238   -0.027501687134
 O    3.249778937031   -1.696998472040   -0.055609625687
 C    3.091227445668    0.695007618496    0.001104682000
 C    4.583517339273    0.878865943958   -0.003726127826
 H    4.845064968353    1.947293820826    0.018928040321
 H    5.023661652863    0.420545724536   -0.902834379272
 H    5.034522545983    0.380379458652    0.868210709087
 H    0.187830916697    2.314725845013    0.053028309592
NA  -10.201173362079   -1.152693159881    0.017135445424
