16

 N    0.860703229512    1.534663063455    0.033107889706
 C    2.231318641921    1.734137741296    0.029476255330
 H    2.553102938259    2.777882672172    0.050895071023
 C    0.260987960083    0.281547903902    0.008577899050
 O   -0.956786071449    0.114605197835    0.009573979824
 N    1.186293975694   -0.755229705940   -0.019078637939
 H    0.791720267831   -1.693744015789   -0.039587511337
 C    2.592024354089   -0.669190993622   -0.027526688730
 O    3.280345026517   -1.692808215424   -0.055634627283
 C    3.121793535154    0.699197875112    0.001079680404
 C    4.614083428760    0.883056200574   -0.003751129422
 H    4.875631057840    1.951484077442    0.018903038725
 H    5.054227742350    0.424735981152   -0.902859380868
 H    5.065088635469    0.384569715268    0.868185707491
 H    0.218397006183    2.318916101629    0.053003307996
NA  -10.368753965090   -1.175666518342    0.017272518323
