16

 N    0.891269318999    1.538853320071    0.033082888111
 C    2.261884731408    1.738327997912    0.029451253735
 H    2.583669027746    2.782072928788    0.050870069428
 C    0.291554049570    0.285738160518    0.008552897455
 O   -0.926219981962    0.118795454451    0.009548978229
 N    1.216860065181   -0.751039449324   -0.019103639534
 H    0.822286357318   -1.689553759173   -0.039612512932
 C    2.622590443576   -0.665000737006   -0.027551690325
 O    3.310911116004   -1.688617958808   -0.055659628878
 C    3.152359624641    0.703388131728    0.001054678809
 C    4.644649518247    0.887246457190   -0.003776131017
 H    4.906197147327    1.955674334058    0.018878037130
 H    5.084793831837    0.428926237768   -0.902884382463
 H    5.095654724956    0.388759971884    0.868160705896
 H    0.248963095670    2.323106358245    0.052978306401
NA  -10.536334568101   -1.198639876803    0.017409591222
