14

 H   -0.033065100412    3.372431274510    0.000000000000
 H    1.522554899588    3.280101274510    0.906270000000
 H    1.522554899588    3.280101274510   -0.906270000000
 C    0.989134899588    2.974661274510    0.000000000000
 S    0.822834899588    1.136471274510    0.000000000000
 H    2.133524899588    0.798661274510    0.000000000000
LI   -0.182915100412   -0.252638725490    1.994120000000
LI   -0.182915100412   -0.252638725490   -1.994120000000
 S   -0.769364763733   -1.062624399679    0.000000000000
 H   -2.080060268913   -0.724806766036    0.000000000000
 C   -0.935670999316   -2.900806602864    0.000000000000
 H    0.086534075953   -3.298576110236    0.000000000000
 H   -1.469084413588   -3.206244590956   -0.906262802616
 H   -1.469084413588   -3.206244590956    0.906262802616
