14

 H   -0.007481784469    3.407766139048    0.000000000000
 H    1.548138215531    3.315436139048    0.906270000000
 H    1.548138215531    3.315436139048   -0.906270000000
 C    1.014718215531    3.009996139048    0.000000000000
 S    0.848418215531    1.171806139048    0.000000000000
 H    2.159108215531    0.833996139048    0.000000000000
LI   -0.157331784469   -0.217303860952    1.994120000000
LI   -0.157331784469   -0.217303860952   -1.994120000000
 S   -0.802426414122   -1.108288102559    0.000000000000
 H   -2.113121919303   -0.770470468917    0.000000000000
 C   -0.968732649705   -2.946470305744    0.000000000000
 H    0.053472425564   -3.344239813116    0.000000000000
 H   -1.502146063977   -3.251908293836   -0.906262802616
 H   -1.502146063977   -3.251908293836    0.906262802616
