14

 H    0.018101531474    3.443101003587    0.000000000000
 H    1.573721531474    3.350771003587    0.906270000000
 H    1.573721531474    3.350771003587   -0.906270000000
 C    1.040301531474    3.045331003587    0.000000000000
 S    0.874001531474    1.207141003587    0.000000000000
 H    2.184691531474    0.869331003587    0.000000000000
LI   -0.131748468526   -0.181968996413    1.994120000000
LI   -0.131748468526   -0.181968996413   -1.994120000000
 S   -0.835488064511   -1.153951805440    0.000000000000
 H   -2.146183569692   -0.816134171797    0.000000000000
 C   -1.001794300094   -2.992134008625    0.000000000000
 H    0.020410775175   -3.389903515997    0.000000000000
 H   -1.535207714366   -3.297571996717   -0.906262802616
 H   -1.535207714366   -3.297571996717    0.906262802616
