14

 H    0.069268163359    3.513770732663    0.000000000000
 H    1.624888163359    3.421440732663    0.906270000000
 H    1.624888163359    3.421440732663   -0.906270000000
 C    1.091468163359    3.116000732663    0.000000000000
 S    0.925168163359    1.277810732663    0.000000000000
 H    2.235858163359    0.940000732663    0.000000000000
LI   -0.080581836641   -0.111299267337    1.994120000000
LI   -0.080581836641   -0.111299267337   -1.994120000000
 S   -0.901611365289   -1.245279211201    0.000000000000
 H   -2.212306870470   -0.907461577558    0.000000000000
 C   -1.067917600872   -3.083461414386    0.000000000000
 H   -0.045712525604   -3.481230921758    0.000000000000
 H   -1.601331015144   -3.388899402478   -0.906262802616
 H   -1.601331015144   -3.388899402478    0.906262802616
