14

 H    0.094851479302    3.549105597202    0.000000000000
 H    1.650471479302    3.456775597202    0.906270000000
 H    1.650471479302    3.456775597202   -0.906270000000
 C    1.117051479302    3.151335597202    0.000000000000
 S    0.950751479302    1.313145597202    0.000000000000
 H    2.261441479302    0.975335597202    0.000000000000
LI   -0.054998520698   -0.075964402798    1.994120000000
LI   -0.054998520698   -0.075964402798   -1.994120000000
 S   -0.934673015679   -1.290942914081    0.000000000000
 H   -2.245368520859   -0.953125280439    0.000000000000
 C   -1.100979251261   -3.129125117266    0.000000000000
 H   -0.078774175993   -3.526894624638    0.000000000000
 H   -1.634392665533   -3.434563105358   -0.906262802616
 H   -1.634392665533   -3.434563105358    0.906262802616
