14

 H    0.146018111188    3.619775326279    0.000000000000
 H    1.701638111188    3.527445326279    0.906270000000
 H    1.701638111188    3.527445326279   -0.906270000000
 C    1.168218111188    3.222005326279    0.000000000000
 S    1.001918111188    1.383815326279    0.000000000000
 H    2.312608111188    1.046005326279    0.000000000000
LI   -0.003831888812   -0.005294673721    1.994120000000
LI   -0.003831888812   -0.005294673721   -1.994120000000
 S   -1.000796316457   -1.382270319842    0.000000000000
 H   -2.311491821637   -1.044452686200    0.000000000000
 C   -1.167102552040   -3.220452523027    0.000000000000
 H   -0.144897476771   -3.618222030399    0.000000000000
 H   -1.700515966312   -3.525890511119   -0.906262802616
 H   -1.700515966312   -3.525890511119    0.906262802616
