14

 H    0.171601427131    3.655110190817    0.000000000000
 H    1.727221427131    3.562780190817    0.906270000000
 H    1.727221427131    3.562780190817   -0.906270000000
 C    1.193801427131    3.257340190817    0.000000000000
 S    1.027501427131    1.419150190817    0.000000000000
 H    2.338191427131    1.081340190817    0.000000000000
LI    0.021751427131    0.030040190817    1.994120000000
LI    0.021751427131    0.030040190817   -1.994120000000
 S   -1.033857966846   -1.427934022723    0.000000000000
 H   -2.344553472026   -1.090116389080    0.000000000000
 C   -1.200164202429   -3.266116225908    0.000000000000
 H   -0.177959127160   -3.663885733279    0.000000000000
 H   -1.733577616701   -3.571554214000   -0.906262802616
 H   -1.733577616701   -3.571554214000    0.906262802616
