14

 H    0.222768059017    3.725779919894    0.000000000000
 H    1.778388059017    3.633449919894    0.906270000000
 H    1.778388059017    3.633449919894   -0.906270000000
 C    1.244968059017    3.328009919894    0.000000000000
 S    1.078668059017    1.489819919894    0.000000000000
 H    2.389358059017    1.152009919894    0.000000000000
LI    0.072918059017    0.100709919894    1.994120000000
LI    0.072918059017    0.100709919894   -1.994120000000
 S   -1.099981267624   -1.519261428484    0.000000000000
 H   -2.410676772805   -1.181443794841    0.000000000000
 C   -1.266287503207   -3.357443631669    0.000000000000
 H   -0.244082427938   -3.755213139040    0.000000000000
 H   -1.799700917479   -3.662881619761   -0.906262802616
 H   -1.799700917479   -3.662881619761    0.906262802616
