14

 H    0.248351374960    3.761114784432    0.000000000000
 H    1.803971374960    3.668784784432    0.906270000000
 H    1.803971374960    3.668784784432   -0.906270000000
 C    1.270551374960    3.363344784432    0.000000000000
 S    1.104251374960    1.525154784432    0.000000000000
 H    2.414941374960    1.187344784432    0.000000000000
LI    0.098501374960    0.136044784432    1.994120000000
LI    0.098501374960    0.136044784432   -1.994120000000
 S   -1.133042918013   -1.564925131364    0.000000000000
 H   -2.443738423194   -1.227107497722    0.000000000000
 C   -1.299349153596   -3.403107334549    0.000000000000
 H   -0.277144078327   -3.800876841921    0.000000000000
 H   -1.832762567868   -3.708545322641   -0.906262802616
 H   -1.832762567868   -3.708545322641    0.906262802616
