14

 H    0.299518006846    3.831784513509    0.000000000000
 H    1.855138006846    3.739454513509    0.906270000000
 H    1.855138006846    3.739454513509   -0.906270000000
 C    1.321718006846    3.434014513509    0.000000000000
 S    1.155418006846    1.595824513509    0.000000000000
 H    2.466108006846    1.258014513509    0.000000000000
LI    0.149668006846    0.206714513509    1.994120000000
LI    0.149668006846    0.206714513509   -1.994120000000
 S   -1.199166218792   -1.656252537125    0.000000000000
 H   -2.509861723972   -1.318434903483    0.000000000000
 C   -1.365472454374   -3.494434740310    0.000000000000
 H   -0.343267379106   -3.892204247682    0.000000000000
 H   -1.898885868646   -3.799872728402   -0.906262802616
 H   -1.898885868646   -3.799872728402    0.906262802616
