14

 H    0.427434586561    4.008458836201    0.000000000000
 H    1.983054586561    3.916128836201    0.906270000000
 H    1.983054586561    3.916128836201   -0.906270000000
 C    1.449634586561    3.610688836201    0.000000000000
 S    1.283334586561    1.772498836201    0.000000000000
 H    2.594024586561    1.434688836201    0.000000000000
LI    0.277584586561    0.383388836201    1.994120000000
LI    0.277584586561    0.383388836201   -1.994120000000
 S   -1.364474470737   -1.884571051528    0.000000000000
 H   -2.675169975918   -1.546753417885    0.000000000000
 C   -1.530780706320   -3.722753254713    0.000000000000
 H   -0.508575631051   -4.120522762084    0.000000000000
 H   -2.064194120592   -4.028191242804   -0.906262802616
 H   -2.064194120592   -4.028191242804    0.906262802616
