14

 H    0.504184534389    4.114463429816    0.000000000000
 H    2.059804534389    4.022133429816    0.906270000000
 H    2.059804534389    4.022133429816   -0.906270000000
 C    1.526384534389    3.716693429816    0.000000000000
 S    1.360084534389    1.878503429816    0.000000000000
 H    2.670774534389    1.540693429816    0.000000000000
LI    0.354334534389    0.489393429816    1.994120000000
LI    0.354334534389    0.489393429816   -1.994120000000
 S   -1.463659421905   -2.021562160169    0.000000000000
 H   -2.774354927085   -1.683744526526    0.000000000000
 C   -1.629965657487   -3.859744363354    0.000000000000
 H   -0.607760582219   -4.257513870726    0.000000000000
 H   -2.163379071759   -4.165182351446   -0.906262802616
 H   -2.163379071759   -4.165182351446    0.906262802616
