14

 H    0.529767850332    4.149798294355    0.000000000000
 H    2.085387850332    4.057468294355    0.906270000000
 H    2.085387850332    4.057468294355   -0.906270000000
 C    1.551967850332    3.752028294355    0.000000000000
 S    1.385667850332    1.913838294355    0.000000000000
 H    2.696357850332    1.576028294355    0.000000000000
LI    0.379917850332    0.524728294355    1.994120000000
LI    0.379917850332    0.524728294355   -1.994120000000
 S   -1.496721072294   -2.067225863049    0.000000000000
 H   -2.807416577474   -1.729408229407    0.000000000000
 C   -1.663027307877   -3.905408066234    0.000000000000
 H   -0.640822232608   -4.303177573606    0.000000000000
 H   -2.196440722148   -4.210846054326   -0.906262802616
 H   -2.196440722148   -4.210846054326    0.906262802616
