14

 H    0.580934482218    4.220468023432    0.000000000000
 H    2.136554482218    4.128138023432    0.906270000000
 H    2.136554482218    4.128138023432   -0.906270000000
 C    1.603134482218    3.822698023432    0.000000000000
 S    1.436834482218    1.984508023432    0.000000000000
 H    2.747524482218    1.646698023432    0.000000000000
LI    0.431084482218    0.595398023432    1.994120000000
LI    0.431084482218    0.595398023432   -1.994120000000
 S   -1.562844373072   -2.158553268810    0.000000000000
 H   -2.873539878252   -1.820735635168    0.000000000000
 C   -1.729150608655   -3.996735471995    0.000000000000
 H   -0.706945533386   -4.394504979367    0.000000000000
 H   -2.262564022927   -4.302173460087   -0.906262802616
 H   -2.262564022927   -4.302173460087    0.906262802616
