14

 H    0.606517798161    4.255802887970    0.000000000000
 H    2.162137798161    4.163472887970    0.906270000000
 H    2.162137798161    4.163472887970   -0.906270000000
 C    1.628717798161    3.858032887970    0.000000000000
 S    1.462417798161    2.019842887970    0.000000000000
 H    2.773107798161    1.682032887970    0.000000000000
LI    0.456667798161    0.630732887970    1.994120000000
LI    0.456667798161    0.630732887970   -1.994120000000
 S   -1.595906023461   -2.204216971691    0.000000000000
 H   -2.906601528642   -1.866399338048    0.000000000000
 C   -1.762212259044   -4.042399174876    0.000000000000
 H   -0.740007183775   -4.440168682248    0.000000000000
 H   -2.295625673316   -4.347837162968   -0.906262802616
 H   -2.295625673316   -4.347837162968    0.906262802616
