14

 H    0.657684430047    4.326472617047    0.000000000000
 H    2.213304430047    4.234142617047    0.906270000000
 H    2.213304430047    4.234142617047   -0.906270000000
 C    1.679884430047    3.928702617047    0.000000000000
 S    1.513584430047    2.090512617047    0.000000000000
 H    2.824274430047    1.752702617047    0.000000000000
LI    0.507834430047    0.701402617047    1.994120000000
LI    0.507834430047    0.701402617047   -1.994120000000
 S   -1.662029324239   -2.295544377452    0.000000000000
 H   -2.972724829420   -1.957726743809    0.000000000000
 C   -1.828335559822   -4.133726580637    0.000000000000
 H   -0.806130484553   -4.531496088008    0.000000000000
 H   -2.361748974094   -4.439164568729   -0.906262802616
 H   -2.361748974094   -4.439164568729    0.906262802616
