14

 H    0.683267745990    4.361807481585    0.000000000000
 H    2.238887745990    4.269477481585    0.906270000000
 H    2.238887745990    4.269477481585   -0.906270000000
 C    1.705467745990    3.964037481585    0.000000000000
 S    1.539167745990    2.125847481585    0.000000000000
 H    2.849857745990    1.788037481585    0.000000000000
LI    0.533417745990    0.736737481585    1.994120000000
LI    0.533417745990    0.736737481585   -1.994120000000
 S   -1.695090974628   -2.341208080332    0.000000000000
 H   -3.005786479809   -2.003390446690    0.000000000000
 C   -1.861397210211   -4.179390283517    0.000000000000
 H   -0.839192134943   -4.577159790889    0.000000000000
 H   -2.394810624483   -4.484828271609   -0.906262802616
 H   -2.394810624483   -4.484828271609    0.906262802616
