14

 H    0.785601009762    4.503146939739    0.000000000000
 H    2.341221009762    4.410816939739    0.906270000000
 H    2.341221009762    4.410816939739   -0.906270000000
 C    1.807801009762    4.105376939739    0.000000000000
 S    1.641501009762    2.267186939739    0.000000000000
 H    2.952191009762    1.929376939739    0.000000000000
LI    0.635751009762    0.878076939739    1.994120000000
LI    0.635751009762    0.878076939739   -1.994120000000
 S   -1.827337576185   -2.523862891854    0.000000000000
 H   -3.138033081365   -2.186045258212    0.000000000000
 C   -1.993643811768   -4.362045095039    0.000000000000
 H   -0.971438736499   -4.759814602411    0.000000000000
 H   -2.527057226040   -4.667483083131   -0.906262802616
 H   -2.527057226040   -4.667483083131    0.906262802616
