14

 H    0.862350957591    4.609151533354    0.000000000000
 H    2.417970957591    4.516821533354    0.906270000000
 H    2.417970957591    4.516821533354   -0.906270000000
 C    1.884550957591    4.211381533354    0.000000000000
 S    1.718250957591    2.373191533354    0.000000000000
 H    3.028940957591    2.035381533354    0.000000000000
LI    0.712500957591    0.984081533354    1.994120000000
LI    0.712500957591    0.984081533354   -1.994120000000
 S   -1.926522527352   -2.660854000496    0.000000000000
 H   -3.237218032533   -2.323036366853    0.000000000000
 C   -2.092828762935   -4.499036203681    0.000000000000
 H   -1.070623687666   -4.896805711052    0.000000000000
 H   -2.626242177207   -4.804474191773   -0.906262802616
 H   -2.626242177207   -4.804474191773    0.906262802616
