14

 H    0.939100905419    4.715156126969    0.000000000000
 H    2.494720905419    4.622826126969    0.906270000000
 H    2.494720905419    4.622826126969   -0.906270000000
 C    1.961300905419    4.317386126969    0.000000000000
 S    1.795000905419    2.479196126969    0.000000000000
 H    3.105690905419    2.141386126969    0.000000000000
LI    0.789250905419    1.090086126969    1.994120000000
LI    0.789250905419    1.090086126969   -1.994120000000
 S   -2.025707478520   -2.797845109137    0.000000000000
 H   -3.336402983700   -2.460027475495    0.000000000000
 C   -2.192013714103   -4.636027312322    0.000000000000
 H   -1.169808638834   -5.033796819694    0.000000000000
 H   -2.725427128374   -4.941465300414   -0.906262802616
 H   -2.725427128374   -4.941465300414    0.906262802616
