14

 H    0.964684221362    4.750490991508    0.000000000000
 H    2.520304221362    4.658160991508    0.906270000000
 H    2.520304221362    4.658160991508   -0.906270000000
 C    1.986884221362    4.352720991508    0.000000000000
 S    1.820584221362    2.514530991508    0.000000000000
 H    3.131274221362    2.176720991508    0.000000000000
LI    0.814834221362    1.125420991508    1.994120000000
LI    0.814834221362    1.125420991508   -1.994120000000
 S   -2.058769128909   -2.843508812018    0.000000000000
 H   -3.369464634089   -2.505691178375    0.000000000000
 C   -2.225075364492   -4.681691015203    0.000000000000
 H   -1.202870289223   -5.079460522574    0.000000000000
 H   -2.758488778764   -4.987129003294   -0.906262802616
 H   -2.758488778764   -4.987129003294    0.906262802616
