14

 H    1.015850853248    4.821160720584    0.000000000000
 H    2.571470853248    4.728830720584    0.906270000000
 H    2.571470853248    4.728830720584   -0.906270000000
 C    2.038050853248    4.423390720584    0.000000000000
 S    1.871750853248    2.585200720584    0.000000000000
 H    3.182440853248    2.247390720584    0.000000000000
LI    0.866000853248    1.196090720584    1.994120000000
LI    0.866000853248    1.196090720584   -1.994120000000
 S   -2.124892429687   -2.934836217778    0.000000000000
 H   -3.435587934868   -2.597018584136    0.000000000000
 C   -2.291198665270   -4.773018420964    0.000000000000
 H   -1.268993590001   -5.170787928335    0.000000000000
 H   -2.824612079542   -5.078456409055   -0.906262802616
 H   -2.824612079542   -5.078456409055    0.906262802616
