14

 H    1.041434169191    4.856495585123    0.000000000000
 H    2.597054169191    4.764165585123    0.906270000000
 H    2.597054169191    4.764165585123   -0.906270000000
 C    2.063634169191    4.458725585123    0.000000000000
 S    1.897334169191    2.620535585123    0.000000000000
 H    3.208024169191    2.282725585123    0.000000000000
LI    0.891584169191    1.231425585123    1.994120000000
LI    0.891584169191    1.231425585123   -1.994120000000
 S   -2.157954080076   -2.980499920659    0.000000000000
 H   -3.468649585257   -2.642682287016    0.000000000000
 C   -2.324260315659   -4.818682123844    0.000000000000
 H   -1.302055240390   -5.216451631216    0.000000000000
 H   -2.857673729931   -5.124120111936   -0.906262802616
 H   -2.857673729931   -5.124120111936    0.906262802616
