14

 H    1.092600801077    4.927165314200    0.000000000000
 H    2.648220801077    4.834835314200    0.906270000000
 H    2.648220801077    4.834835314200   -0.906270000000
 C    2.114800801077    4.529395314200    0.000000000000
 S    1.948500801077    2.691205314200    0.000000000000
 H    3.259190801077    2.353395314200    0.000000000000
LI    0.942750801077    1.302095314200    1.994120000000
LI    0.942750801077    1.302095314200   -1.994120000000
 S   -2.224077380855   -3.071827326420    0.000000000000
 H   -3.534772886035   -2.734009692777    0.000000000000
 C   -2.390383616437   -4.910009529605    0.000000000000
 H   -1.368178541169   -5.307779036977    0.000000000000
 H   -2.923797030709   -5.215447517697   -0.906262802616
 H   -2.923797030709   -5.215447517697    0.906262802616
