14

 H    1.118184117020    4.962500178738    0.000000000000
 H    2.673804117020    4.870170178738    0.906270000000
 H    2.673804117020    4.870170178738   -0.906270000000
 C    2.140384117020    4.564730178738    0.000000000000
 S    1.974084117020    2.726540178738    0.000000000000
 H    3.284774117020    2.388730178738    0.000000000000
LI    0.968334117020    1.337430178738    1.994120000000
LI    0.968334117020    1.337430178738   -1.994120000000
 S   -2.257139031244   -3.117491029300    0.000000000000
 H   -3.567834536424   -2.779673395658    0.000000000000
 C   -2.423445266827   -4.955673232485    0.000000000000
 H   -1.401240191558   -5.353442739857    0.000000000000
 H   -2.956858681098   -5.261111220577   -0.906262802616
 H   -2.956858681098   -5.261111220577    0.906262802616
