14

 H    1.220517380792    5.103839636892    0.000000000000
 H    2.776137380792    5.011509636892    0.906270000000
 H    2.776137380792    5.011509636892   -0.906270000000
 C    2.242717380792    4.706069636892    0.000000000000
 S    2.076417380792    2.867879636892    0.000000000000
 H    3.387107380792    2.530069636892    0.000000000000
LI    1.070667380792    1.478769636892    1.994120000000
LI    1.070667380792    1.478769636892   -1.994120000000
 S   -2.389385632800   -3.300145840822    0.000000000000
 H   -3.700081137981   -2.962328207180    0.000000000000
 C   -2.555691868383   -5.138328044007    0.000000000000
 H   -1.533486793114   -5.536097551379    0.000000000000
 H   -3.089105282655   -5.443766032099   -0.906262802616
 H   -3.089105282655   -5.443766032099    0.906262802616
