14

 H    1.246100696735    5.139174501430    0.000000000000
 H    2.801720696735    5.046844501430    0.906270000000
 H    2.801720696735    5.046844501430   -0.906270000000
 C    2.268300696735    4.741404501430    0.000000000000
 S    2.102000696735    2.903214501430    0.000000000000
 H    3.412690696735    2.565404501430    0.000000000000
LI    1.096250696735    1.514104501430    1.994120000000
LI    1.096250696735    1.514104501430   -1.994120000000
 S   -2.422447283189   -3.345809543703    0.000000000000
 H   -3.733142788370   -3.007991910060    0.000000000000
 C   -2.588753518772   -5.183991746888    0.000000000000
 H   -1.566548443503   -5.581761254259    0.000000000000
 H   -3.122166933044   -5.489429734980   -0.906262802616
 H   -3.122166933044   -5.489429734980    0.906262802616
