14

 H    1.271684012678    5.174509365968    0.000000000000
 H    2.827304012678    5.082179365968    0.906270000000
 H    2.827304012678    5.082179365968   -0.906270000000
 C    2.293884012678    4.776739365968    0.000000000000
 S    2.127584012678    2.938549365968    0.000000000000
 H    3.438274012678    2.600739365968    0.000000000000
LI    1.121834012678    1.549439365968    1.994120000000
LI    1.121834012678    1.549439365968   -1.994120000000
 S   -2.455508933578   -3.391473246583    0.000000000000
 H   -3.766204438759   -3.053655612941    0.000000000000
 C   -2.621815169161   -5.229655449768    0.000000000000
 H   -1.599610093892   -5.627424957140    0.000000000000
 H   -3.155228583433   -5.535093437860   -0.906262802616
 H   -3.155228583433   -5.535093437860    0.906262802616
