14

 H    1.374017276449    5.315848824122    0.000000000000
 H    2.929637276449    5.223518824122    0.906270000000
 H    2.929637276449    5.223518824122   -0.906270000000
 C    2.396217276449    4.918078824122    0.000000000000
 S    2.229917276449    3.079888824122    0.000000000000
 H    3.540607276449    2.742078824122    0.000000000000
LI    1.224167276449    1.690778824122    1.994120000000
LI    1.224167276449    1.690778824122   -1.994120000000
 S   -2.587755535135   -3.574128058105    0.000000000000
 H   -3.898451040315   -3.236310424463    0.000000000000
 C   -2.754061770718   -5.412310261290    0.000000000000
 H   -1.731856695449   -5.810079768662    0.000000000000
 H   -3.287475184990   -5.717748249382   -0.906262802616
 H   -3.287475184990   -5.717748249382    0.906262802616
