14

 H    1.399600592392    5.351183688660    0.000000000000
 H    2.955220592392    5.258853688660    0.906270000000
 H    2.955220592392    5.258853688660   -0.906270000000
 C    2.421800592392    4.953413688660    0.000000000000
 S    2.255500592392    3.115223688660    0.000000000000
 H    3.566190592392    2.777413688660    0.000000000000
LI    1.249750592392    1.726113688660    1.994120000000
LI    1.249750592392    1.726113688660   -1.994120000000
 S   -2.620817185524   -3.619791760986    0.000000000000
 H   -3.931512690704   -3.281974127343    0.000000000000
 C   -2.787123421107   -5.457973964171    0.000000000000
 H   -1.764918345838   -5.855743471542    0.000000000000
 H   -3.320536835379   -5.763411952263   -0.906262802616
 H   -3.320536835379   -5.763411952263    0.906262802616
