14

 H    1.425183908335    5.386518553199    0.000000000000
 H    2.980803908335    5.294188553199    0.906270000000
 H    2.980803908335    5.294188553199   -0.906270000000
 C    2.447383908335    4.988748553199    0.000000000000
 S    2.281083908335    3.150558553199    0.000000000000
 H    3.591773908335    2.812748553199    0.000000000000
LI    1.275333908335    1.761448553199    1.994120000000
LI    1.275333908335    1.761448553199   -1.994120000000
 S   -2.653878835913   -3.665455463866    0.000000000000
 H   -3.964574341094   -3.327637830224    0.000000000000
 C   -2.820185071496   -5.503637667051    0.000000000000
 H   -1.797979996227   -5.901407174423    0.000000000000
 H   -3.353598485768   -5.809075655143   -0.906262802616
 H   -3.353598485768   -5.809075655143    0.906262802616
