14

 H    1.501933856164    5.492523146814    0.000000000000
 H    3.057553856164    5.400193146814    0.906270000000
 H    3.057553856164    5.400193146814   -0.906270000000
 C    2.524133856164    5.094753146814    0.000000000000
 S    2.357833856164    3.256563146814    0.000000000000
 H    3.668523856164    2.918753146814    0.000000000000
LI    1.352083856164    1.867453146814    1.994120000000
LI    1.352083856164    1.867453146814   -1.994120000000
 S   -2.753063787081   -3.802446572507    0.000000000000
 H   -4.063759292261   -3.464628938865    0.000000000000
 C   -2.919370022663   -5.640628775693    0.000000000000
 H   -1.897164947395   -6.038398283064    0.000000000000
 H   -3.452783436935   -5.946066763784   -0.906262802616
 H   -3.452783436935   -5.946066763784    0.906262802616
