14

 H    1.527517172107    5.527858011352    0.000000000000
 H    3.083137172107    5.435528011352    0.906270000000
 H    3.083137172107    5.435528011352   -0.906270000000
 C    2.549717172107    5.130088011352    0.000000000000
 S    2.383417172107    3.291898011352    0.000000000000
 H    3.694107172107    2.954088011352    0.000000000000
LI    1.377667172107    1.902788011352    1.994120000000
LI    1.377667172107    1.902788011352   -1.994120000000
 S   -2.786125437470   -3.848110275388    0.000000000000
 H   -4.096820942650   -3.510292641745    0.000000000000
 C   -2.952431673053   -5.686292478573    0.000000000000
 H   -1.930226597784   -6.084061985945    0.000000000000
 H   -3.485845087324   -5.991730466665   -0.906262802616
 H   -3.485845087324   -5.991730466665    0.906262802616
