14

 H    1.578683803993    5.598527740429    0.000000000000
 H    3.134303803993    5.506197740429    0.906270000000
 H    3.134303803993    5.506197740429   -0.906270000000
 C    2.600883803993    5.200757740429    0.000000000000
 S    2.434583803993    3.362567740429    0.000000000000
 H    3.745273803993    3.024757740429    0.000000000000
LI    1.428833803993    1.973457740429    1.994120000000
LI    1.428833803993    1.973457740429   -1.994120000000
 S   -2.852248738248   -3.939437681149    0.000000000000
 H   -4.162944243428   -3.601620047506    0.000000000000
 C   -3.018554973831   -5.777619884334    0.000000000000
 H   -1.996349898562   -6.175389391706    0.000000000000
 H   -3.551968388103   -6.083057872426   -0.906262802616
 H   -3.551968388103   -6.083057872426    0.906262802616
