14

 H    1.604267119936    5.633862604968    0.000000000000
 H    3.159887119936    5.541532604968    0.906270000000
 H    3.159887119936    5.541532604968   -0.906270000000
 C    2.626467119936    5.236092604968    0.000000000000
 S    2.460167119936    3.397902604968    0.000000000000
 H    3.770857119936    3.060092604968    0.000000000000
LI    1.454417119936    2.008792604968    1.994120000000
LI    1.454417119936    2.008792604968   -1.994120000000
 S   -2.885310388637   -3.985101384029    0.000000000000
 H   -4.196005893817   -3.647283750387    0.000000000000
 C   -3.051616624220   -5.823283587214    0.000000000000
 H   -2.029411548951   -6.221053094586    0.000000000000
 H   -3.585030038492   -6.128721575306   -0.906262802616
 H   -3.585030038492   -6.128721575306    0.906262802616
