14

 H    1.655433751822    5.704532334044    0.000000000000
 H    3.211053751822    5.612202334044    0.906270000000
 H    3.211053751822    5.612202334044   -0.906270000000
 C    2.677633751822    5.306762334044    0.000000000000
 S    2.511333751822    3.468572334044    0.000000000000
 H    3.822023751822    3.130762334044    0.000000000000
LI    1.505583751822    2.079462334044    1.994120000000
LI    1.505583751822    2.079462334044   -1.994120000000
 S   -2.951433689415   -4.076428789790    0.000000000000
 H   -4.262129194596   -3.738611156148    0.000000000000
 C   -3.117739924998   -5.914610992975    0.000000000000
 H   -2.095534849729   -6.312380500347    0.000000000000
 H   -3.651153339270   -6.220048981067   -0.906262802616
 H   -3.651153339270   -6.220048981067    0.906262802616
