14

 H    1.757767015594    5.845871792198    0.000000000000
 H    3.313387015594    5.753541792198    0.906270000000
 H    3.313387015594    5.753541792198   -0.906270000000
 C    2.779967015594    5.448101792198    0.000000000000
 S    2.613667015594    3.609911792198    0.000000000000
 H    3.924357015594    3.272101792198    0.000000000000
LI    1.607917015594    2.220801792198    1.994120000000
LI    1.607917015594    2.220801792198   -1.994120000000
 S   -3.083680290972   -4.259083601312    0.000000000000
 H   -4.394375796152   -3.921265967670    0.000000000000
 C   -3.249986526555   -6.097265804497    0.000000000000
 H   -2.227781451286   -6.495035311869    0.000000000000
 H   -3.783399940826   -6.402703792589   -0.906262802616
 H   -3.783399940826   -6.402703792589    0.906262802616
