14

 H    1.783350331537    5.881206656736    0.000000000000
 H    3.338970331537    5.788876656736    0.906270000000
 H    3.338970331537    5.788876656736   -0.906270000000
 C    2.805550331537    5.483436656736    0.000000000000
 S    2.639250331537    3.645246656736    0.000000000000
 H    3.949940331537    3.307436656736    0.000000000000
LI    1.633500331537    2.256136656736    1.994120000000
LI    1.633500331537    2.256136656736   -1.994120000000
 S   -3.116741941361   -4.304747304193    0.000000000000
 H   -4.427437446541   -3.966929670550    0.000000000000
 C   -3.283048176944   -6.142929507378    0.000000000000
 H   -2.260843101675   -6.540699014749    0.000000000000
 H   -3.816461591216   -6.448367495470   -0.906262802616
 H   -3.816461591216   -6.448367495470    0.906262802616
