14

 H    1.808933647479    5.916541521275    0.000000000000
 H    3.364553647479    5.824211521275    0.906270000000
 H    3.364553647479    5.824211521275   -0.906270000000
 C    2.831133647479    5.518771521275    0.000000000000
 S    2.664833647479    3.680581521275    0.000000000000
 H    3.975523647479    3.342771521275    0.000000000000
LI    1.659083647479    2.291471521275    1.994120000000
LI    1.659083647479    2.291471521275   -1.994120000000
 S   -3.149803591750   -4.350411007073    0.000000000000
 H   -4.460499096930   -4.012593373431    0.000000000000
 C   -3.316109827333   -6.188593210258    0.000000000000
 H   -2.293904752064   -6.586362717630    0.000000000000
 H   -3.849523241605   -6.494031198350   -0.906262802616
 H   -3.849523241605   -6.494031198350    0.906262802616
