14

 H    1.860100279365    5.987211250352    0.000000000000
 H    3.415720279365    5.894881250352    0.906270000000
 H    3.415720279365    5.894881250352   -0.906270000000
 C    2.882300279365    5.589441250352    0.000000000000
 S    2.716000279365    3.751251250352    0.000000000000
 H    4.026690279365    3.413441250352    0.000000000000
LI    1.710250279365    2.362141250352    1.994120000000
LI    1.710250279365    2.362141250352   -1.994120000000
 S   -3.215926892528   -4.441738412834    0.000000000000
 H   -4.526622397709   -4.103920779192    0.000000000000
 C   -3.382233128111   -6.279920616019    0.000000000000
 H   -2.360028052842   -6.677690123391    0.000000000000
 H   -3.915646542383   -6.585358604111   -0.906262802616
 H   -3.915646542383   -6.585358604111    0.906262802616
