14

 H    1.936850227194    6.093215843967    0.000000000000
 H    3.492470227194    6.000885843967    0.906270000000
 H    3.492470227194    6.000885843967   -0.906270000000
 C    2.959050227194    5.695445843967    0.000000000000
 S    2.792750227194    3.857255843967    0.000000000000
 H    4.103440227194    3.519445843967    0.000000000000
LI    1.787000227194    2.468145843967    1.994120000000
LI    1.787000227194    2.468145843967   -1.994120000000
 S   -3.315111843696   -4.578729521476    0.000000000000
 H   -4.625807348876   -4.240911887833    0.000000000000
 C   -3.481418079279   -6.416911724661    0.000000000000
 H   -2.459213004010   -6.814681232032    0.000000000000
 H   -4.014831493550   -6.722349712753   -0.906262802616
 H   -4.014831493550   -6.722349712753    0.906262802616
