14

 H    2.013600175023    6.199220437582    0.000000000000
 H    3.569220175023    6.106890437582    0.906270000000
 H    3.569220175023    6.106890437582   -0.906270000000
 C    3.035800175023    5.801450437582    0.000000000000
 S    2.869500175023    3.963260437582    0.000000000000
 H    4.180190175023    3.625450437582    0.000000000000
LI    1.863750175023    2.574150437582    1.994120000000
LI    1.863750175023    2.574150437582   -1.994120000000
 S   -3.414296794863   -4.715720630117    0.000000000000
 H   -4.724992300043   -4.377902996474    0.000000000000
 C   -3.580603030446   -6.553902833302    0.000000000000
 H   -2.558397955177   -6.951672340674    0.000000000000
 H   -4.114016444718   -6.859340821394   -0.906262802616
 H   -4.114016444718   -6.859340821394    0.906262802616
