14

 H    2.039183490966    6.234555302121    0.000000000000
 H    3.594803490966    6.142225302121    0.906270000000
 H    3.594803490966    6.142225302121   -0.906270000000
 C    3.061383490966    5.836785302121    0.000000000000
 S    2.895083490966    3.998595302121    0.000000000000
 H    4.205773490966    3.660785302121    0.000000000000
LI    1.889333490966    2.609485302121    1.994120000000
LI    1.889333490966    2.609485302121   -1.994120000000
 S   -3.447358445252   -4.761384332997    0.000000000000
 H   -4.758053950433   -4.423566699355    0.000000000000
 C   -3.613664680835   -6.599566536183    0.000000000000
 H   -2.591459605566   -6.997336043554    0.000000000000
 H   -4.147078095107   -6.905004524274   -0.906262802616
 H   -4.147078095107   -6.905004524274    0.906262802616
