14

 H    2.141516754738    6.375894760274    0.000000000000
 H    3.697136754738    6.283564760274    0.906270000000
 H    3.697136754738    6.283564760274   -0.906270000000
 C    3.163716754738    5.978124760274    0.000000000000
 S    2.997416754738    4.139934760274    0.000000000000
 H    4.308106754738    3.802124760274    0.000000000000
LI    1.991666754738    2.750824760274    1.994120000000
LI    1.991666754738    2.750824760274   -1.994120000000
 S   -3.579605046809   -4.944039144519    0.000000000000
 H   -4.890300551989   -4.606221510877    0.000000000000
 C   -3.745911282392   -6.782221347704    0.000000000000
 H   -2.723706207123   -7.179990855076    0.000000000000
 H   -4.279324696663   -7.087659335796   -0.906262802616
 H   -4.279324696663   -7.087659335796    0.906262802616
