14

 H    2.192683386624    6.446564489351    0.000000000000
 H    3.748303386624    6.354234489351    0.906270000000
 H    3.748303386624    6.354234489351   -0.906270000000
 C    3.214883386624    6.048794489351    0.000000000000
 S    3.048583386624    4.210604489351    0.000000000000
 H    4.359273386624    3.872794489351    0.000000000000
LI    2.042833386624    2.821494489351    1.994120000000
LI    2.042833386624    2.821494489351   -1.994120000000
 S   -3.645728347587   -5.035366550280    0.000000000000
 H   -4.956423852767   -4.697548916638    0.000000000000
 C   -3.812034583170   -6.873548753465    0.000000000000
 H   -2.789829507901   -7.271318260837    0.000000000000
 H   -4.345447997442   -7.178986741557   -0.906262802616
 H   -4.345447997442   -7.178986741557    0.906262802616
