14

 H    2.218266702567    6.481899353889    0.000000000000
 H    3.773886702567    6.389569353889    0.906270000000
 H    3.773886702567    6.389569353889   -0.906270000000
 C    3.240466702567    6.084129353889    0.000000000000
 S    3.074166702567    4.245939353889    0.000000000000
 H    4.384856702567    3.908129353889    0.000000000000
LI    2.068416702567    2.856829353889    1.994120000000
LI    2.068416702567    2.856829353889   -1.994120000000
 S   -3.678789997976   -5.081030253161    0.000000000000
 H   -4.989485503156   -4.743212619518    0.000000000000
 C   -3.845096233559   -6.919212456346    0.000000000000
 H   -2.822891158290   -7.316981963718    0.000000000000
 H   -4.378509647831   -7.224650444438   -0.906262802616
 H   -4.378509647831   -7.224650444438    0.906262802616
