16

 N   -1.814206163654    2.421845715363    0.066553392679
 C   -0.443590751245    2.621320393204    0.062921758303
 H   -0.121806454907    3.665065324080    0.084340573996
 C   -2.413921433083    1.168730555810    0.042023402023
 O   -3.631695464615    1.001787849743    0.043019482797
 N   -1.488615417472    0.131952945968    0.014366865034
 H   -1.883189125335   -0.806561363881   -0.006142008364
 C   -0.082885039077    0.217991658286    0.005918814243
 O    0.605435633351   -0.805625563516   -0.022189124310
 C    0.446884141988    1.586380527020    0.034525183377
 C    1.939174035594    1.770238852482    0.029694373551
 H    2.200721664674    2.838666729350    0.052348541698
 H    2.379318349184    1.311918633060   -0.869413877895
 H    2.390179242303    1.271752367176    0.901631210464
 H   -2.456512386983    3.206098753537    0.086448810969
RB    1.163303110919   -1.635242892177   -0.044969937685
