16

 N   -1.904025489033    2.555418063241    0.070221212315
 C   -0.533410076624    2.754892741082    0.066589577939
 H   -0.211625780286    3.798637671958    0.088008393632
 C   -2.503740758462    1.302302903688    0.045691221659
 O   -3.721514789994    1.135360197621    0.046687302433
 N   -1.578434742851    0.265525293846    0.018034684670
 H   -1.973008450714   -0.672989016003   -0.002474188728
 C   -0.172704364456    0.351564006164    0.009586633879
 O    0.515616307972   -0.672053215638   -0.018521304674
 C    0.357064816609    1.719952874898    0.038193003013
 C    1.849354710215    1.903811200360    0.033362193187
 H    2.110902339295    2.972239077228    0.056016361334
 H    2.289499023805    1.445490980938   -0.865746058259
 H    2.300359916924    1.405324715054    0.905299030100
 H   -2.546331712362    3.339671101415    0.090116630605
RB    1.296630776567   -1.833517475763   -0.050414443398
