16

 N   -1.993844814413    2.688990411120    0.073889031952
 C   -0.623229402004    2.888465088961    0.070257397576
 H   -0.301445105666    3.932210019837    0.091676213269
 C   -2.593560083842    1.435875251567    0.049359041296
 O   -3.811334115374    1.268932545500    0.050355122070
 N   -1.668254068231    0.399097641725    0.021702504307
 H   -2.062827776094   -0.539416668124    0.001193630909
 C   -0.262523689836    0.485136354043    0.013254453516
 O    0.425796982592   -0.538480867759   -0.014853485037
 C    0.267245491229    1.853525222777    0.041860822650
 C    1.759535384835    2.037383548239    0.037030012824
 H    2.021083013915    3.105811425107    0.059684180971
 H    2.199679698425    1.579063328817   -0.862078238622
 H    2.210540591544    1.538897062933    0.908966849737
 H   -2.636151037742    3.473243449294    0.093784450242
RB    1.429958442214   -2.031792059349   -0.055858949111
