16

 N   -3.835140984700    5.427223542627    0.149079334503
 C   -2.464525572291    5.626698220468    0.145447700127
 H   -2.142741275953    6.670443151344    0.166866515820
 C   -4.434856254129    4.174108383074    0.124549343847
 O   -5.652630285661    4.007165677007    0.125545424621
 N   -3.509550238518    3.137330773232    0.096892806858
 H   -3.904123946381    2.198816463383    0.076383933460
 C   -2.103819860123    3.223369485550    0.088444756067
 O   -1.415499187695    2.199752263748    0.060336817514
 C   -1.574050679058    4.591758354284    0.117051125201
 C   -0.081760785452    4.775616679746    0.112220315375
 H    0.179786843628    5.844044556614    0.134874483522
 H    0.358383528138    4.317296460324   -0.786887936071
 H    0.369244421257    4.277130194440    0.984157152288
 H   -4.477447208029    6.211476580801    0.168974752793
RB    4.163175587983   -6.096421022859   -0.167471316228
