16

 N   -2.151028633828    2.922742019907    0.080307716316
 C   -0.780413221419    3.122216697748    0.076676081940
 H   -0.458628925081    4.165961628624    0.098094897633
 C   -2.750743903257    1.669626860354    0.055777725660
 O   -3.968517934789    1.502684154287    0.056773806434
 N   -1.825437887646    0.632849250512    0.028121188671
 H   -2.220011595509   -0.305665059337    0.007612315273
 C   -0.419707509251    0.718887962830    0.019673137880
 O    0.268613163177   -0.304729258972   -0.008434800673
 C    0.110061671814    2.087276831564    0.048279507014
 C    1.602351565420    2.271135157026    0.043448697188
 H    1.863899194500    3.339563033894    0.066102865335
 H    2.042495879010    1.812814937604   -0.855659554258
 H    2.053356772129    1.772648671720    0.915385534101
 H   -2.793334857157    3.706995058081    0.100203134606
RB    1.663281857097   -2.378772580624   -0.065386834108
