16

 N   -2.173483465173    2.956135106876    0.081224671225
 C   -0.802868052764    3.155609784717    0.077593036849
 H   -0.481083756426    4.199354715593    0.099011852542
 C   -2.773198734602    1.703019947323    0.056694680569
 O   -3.990972766134    1.536077241256    0.057690761343
 N   -1.847892718991    0.666242337481    0.029038143580
 H   -2.242466426854   -0.272271972368    0.008529270182
 C   -0.442162340596    0.752281049799    0.020590092789
 O    0.246158331832   -0.271336172003   -0.007517845764
 C    0.087606840469    2.120669918533    0.049196461923
 C    1.579896734075    2.304528243995    0.044365652097
 H    1.841444363155    3.372956120863    0.067019820244
 H    2.020041047665    1.846208024573   -0.854742599349
 H    2.030901940784    1.806041758689    0.916302489010
 H   -2.815789688502    3.740388145050    0.101120089515
RB    1.696613773508   -2.428341226520   -0.066747960537
