16

 N   -2.285757621898    3.123100541724    0.085809445771
 C   -0.915142209489    3.322575219565    0.082177811395
 H   -0.593357913151    4.366320150441    0.103596627088
 C   -2.885472891327    1.869985382171    0.061279455115
 O   -4.103246922859    1.703042676104    0.062275535889
 N   -1.960166875716    0.833207772329    0.033622918126
 H   -2.354740583579   -0.105306537520    0.013114044728
 C   -0.554436497321    0.919246484647    0.025174867335
 O    0.133884175107   -0.104370737155   -0.002933071218
 C   -0.024667316256    2.287635353381    0.053781236469
 C    1.467622577350    2.471493678843    0.048950426643
 H    1.729170206430    3.539921555711    0.071604594790
 H    1.907766890940    2.013173459421   -0.850157824803
 H    1.918627784059    1.973007193537    0.920887263556
 H   -2.928063845227    3.907353579898    0.105704864061
RB    1.863273355567   -2.676184456003   -0.073553592678
