16

 N   -2.330667284588    3.189886715664    0.087643355589
 C   -0.960051872179    3.389361393505    0.084011721213
 H   -0.638267575841    4.433106324381    0.105430536906
 C   -2.930382554017    1.936771556111    0.063113364933
 O   -4.148156585549    1.769828850044    0.064109445707
 N   -2.005076538406    0.899993946269    0.035456827944
 H   -2.399650246269   -0.038520363580    0.014947954546
 C   -0.599346160011    0.986032658587    0.027008777153
 O    0.088974512417   -0.037584563215   -0.001099161400
 C   -0.069576978946    2.354421527321    0.055615146287
 C    1.422712914660    2.538279852783    0.050784336461
 H    1.684260543740    3.606707729651    0.073438504608
 H    1.862857228250    2.079959633361   -0.848323914985
 H    1.873718121369    2.039793367477    0.922721173374
 H   -2.972973507917    3.974139753838    0.107538773879
RB    1.929937188391   -2.775321747796   -0.076275845535
