16

 N   -2.353122115933    3.223279802633    0.088560310499
 C   -0.982506703524    3.422754480474    0.084928676123
 H   -0.660722407186    4.466499411350    0.106347491816
 C   -2.952837385362    1.970164643080    0.064030319843
 O   -4.170611416894    1.803221937013    0.065026400617
 N   -2.027531369751    0.933387033238    0.036373782854
 H   -2.422105077614   -0.005127276611    0.015864909456
 C   -0.621800991356    1.019425745556    0.027925732063
 O    0.066519681072   -0.004191476246   -0.000182206490
 C   -0.092031810291    2.387814614290    0.056532101197
 C    1.400258083315    2.571672939752    0.051701291371
 H    1.661805712395    3.640100816620    0.074355459518
 H    1.840402396905    2.113352720330   -0.847406960075
 H    1.851263290024    2.073186454446    0.923638128284
 H   -2.995428339262    4.007532840807    0.108455728789
RB    1.963269104803   -2.824890393692   -0.077636971963
