16

 N   -2.442941441312    3.356852150512    0.092228130135
 C   -1.072326028903    3.556326828353    0.088596495759
 H   -0.750541732565    4.600071759229    0.110015311452
 C   -3.042656710741    2.103736990959    0.067698139479
 O   -4.260430742273    1.936794284892    0.068694220253
 N   -2.117350695130    1.066959381117    0.040041602490
 H   -2.511924402993    0.128445071268    0.019532729092
 C   -0.711620316735    1.152998093435    0.031593551699
 O   -0.023299644307    0.129380871633    0.003485613146
 C   -0.181851135670    2.521386962169    0.060199920833
 C    1.310438757936    2.705245287631    0.055369111007
 H    1.571986387016    3.773673164499    0.078023279154
 H    1.750583071526    2.246925068209   -0.843739140439
 H    1.761443964645    2.206758802325    0.927305947920
 H   -3.085247664641    4.141105188686    0.112123548425
RB    2.096596770450   -3.023164977278   -0.083081477676
