16

 N   -2.487851104002    3.423638324451    0.094062039953
 C   -1.117235691593    3.623113002292    0.090430405577
 H   -0.795451395255    4.666857933168    0.111849221270
 C   -3.087566373431    2.170523164898    0.069532049297
 O   -4.305340404963    2.003580458831    0.070528130071
 N   -2.162260357820    1.133745555056    0.041875512308
 H   -2.556834065683    0.195231245207    0.021366638910
 C   -0.756529979425    1.219784267374    0.033427461517
 O   -0.068209306997    0.196167045572    0.005319522964
 C   -0.226760798360    2.588173136108    0.062033830651
 C    1.265529095246    2.772031461570    0.057203020825
 H    1.527076724326    3.840459338438    0.079857188972
 H    1.705673408836    2.313711242148   -0.841905230621
 H    1.716534301955    2.273544976264    0.929139857738
 H   -3.130157327331    4.207891362625    0.113957458243
RB    2.163260603274   -3.122302269071   -0.085803730532
