16

 N   -2.622580092072    3.623996846268    0.099563769408
 C   -1.251964679663    3.823471524109    0.095932135032
 H   -0.930180383325    4.867216454985    0.117350950725
 C   -3.222295361501    2.370881686715    0.075033778752
 O   -4.440069393033    2.203938980648    0.076029859526
 N   -2.296989345890    1.334104076873    0.047377241763
 H   -2.691563053753    0.395589767024    0.026868368365
 C   -0.891258967495    1.420142789191    0.038929190972
 O   -0.202938295067    0.396525567389    0.010821252419
 C   -0.361489786430    2.788531657925    0.067535560106
 C    1.130800107176    2.972389983387    0.062704750280
 H    1.392347736256    4.040817860255    0.085358918427
 H    1.570944420766    2.514069763965   -0.836403501166
 H    1.581805313885    2.473903498081    0.934641587193
 H   -3.264886315401    4.408249884442    0.119459187698
RB    2.363252101745   -3.419714144450   -0.093970489102
