16

 N   -2.757309080142    3.824355368086    0.105065498863
 C   -1.386693667733    4.023830045927    0.101433864487
 H   -1.064909371395    5.067574976803    0.122852680180
 C   -3.357024349571    2.571240208533    0.080535508207
 O   -4.574798381103    2.404297502466    0.081531588981
 N   -2.431718333960    1.534462598691    0.052878971218
 H   -2.826292041823    0.595948288842    0.032370097820
 C   -1.025987955565    1.620501311009    0.044430920427
 O   -0.337667283137    0.596884089207    0.016322981874
 C   -0.496218774500    2.988890179743    0.073037289561
 C    0.996071119106    3.172748505205    0.068206479735
 H    1.257618748186    4.241176382073    0.090860647882
 H    1.436215432696    2.714428285783   -0.830901771711
 H    1.447076325815    2.674262019899    0.940143316648
 H   -3.399615303471    4.608608406260    0.124960917153
RB    2.563243600216   -3.717126019829   -0.102137247671
