16

 N   -2.802218742832    3.891141542025    0.106899408682
 C   -1.431603330423    4.090616219866    0.103267774306
 H   -1.109819034085    5.134361150742    0.124686589999
 C   -3.401934012261    2.638026382472    0.082369418026
 O   -4.619708043793    2.471083676405    0.083365498800
 N   -2.476627996650    1.601248772630    0.054712881037
 H   -2.871201704513    0.662734462781    0.034204007639
 C   -1.070897618255    1.687287484948    0.046264830246
 O   -0.382576945827    0.663670263146    0.018156891693
 C   -0.541128437190    3.055676353682    0.074871199380
 C    0.951161456416    3.239534679144    0.070040389554
 H    1.212709085496    4.307962556012    0.092694557701
 H    1.391305770006    2.781214459722   -0.829067861892
 H    1.402166663125    2.741048193838    0.941977226467
 H   -3.444524966161    4.675394580199    0.126794826972
RB    2.629907433039   -3.816263311622   -0.104859500528
