16

 N   -2.847128405522    3.957927715964    0.108733318500
 C   -1.476512993113    4.157402393805    0.105101684124
 H   -1.154728696775    5.201147324681    0.126520499817
 C   -3.446843674951    2.704812556411    0.084203327844
 O   -4.664617706483    2.537869850344    0.085199408618
 N   -2.521537659340    1.668034946569    0.056546790855
 H   -2.916111367203    0.729520636720    0.036037917457
 C   -1.115807280945    1.754073658887    0.048098740064
 O   -0.427486608517    0.730456437085    0.019990801511
 C   -0.586038099880    3.122462527621    0.076705109198
 C    0.906251793726    3.306320853083    0.071874299372
 H    1.167799422806    4.374748729951    0.094528467519
 H    1.346396107316    2.848000633661   -0.827233952074
 H    1.357257000435    2.807834367777    0.943811136285
 H   -3.489434628851    4.742180754138    0.128628736790
RB    2.696571265863   -3.915400603414   -0.107581753384
