16

 N   -2.869583236867    3.991320802934    0.109650273409
 C   -1.498967824458    4.190795480775    0.106018639033
 H   -1.177183528120    5.234540411651    0.127437454726
 C   -3.469298506296    2.738205643381    0.085120282753
 O   -4.687072537828    2.571262937314    0.086116363527
 N   -2.543992490685    1.701428033539    0.057463745764
 H   -2.938566198548    0.762913723690    0.036954872366
 C   -1.138262112290    1.787466745857    0.049015694973
 O   -0.449941439862    0.763849524055    0.020907756420
 C   -0.608492931225    3.155855614591    0.077622064107
 C    0.883796962381    3.339713940053    0.072791254281
 H    1.145344591461    4.408141816921    0.095445422428
 H    1.323941275971    2.881393720631   -0.826316997165
 H    1.334802169090    2.841227454747    0.944728091194
 H   -3.511889460196    4.775573841108    0.129545691699
RB    2.729903182275   -3.964969249311   -0.108942879813
