16

 N   -3.161496044351    4.425430933539    0.121570687228
 C   -1.790880631942    4.624905611380    0.117939052852
 H   -1.469096335604    5.668650542256    0.139357868545
 C   -3.761211313780    3.172315773986    0.097040696572
 O   -4.978985345312    3.005373067919    0.098036777346
 N   -2.835905298169    2.135538164144    0.069384159583
 H   -3.230479006032    1.197023854295    0.048875286185
 C   -1.430174919774    2.221576876462    0.060936108792
 O   -0.741854247346    1.197959654660    0.032828170239
 C   -0.900405738709    3.589965745196    0.089542477926
 C    0.591884154897    3.773824070658    0.084711668100
 H    0.853431783977    4.842251947526    0.107365836247
 H    1.032028468487    3.315503851236   -0.814396583346
 H    1.042889361606    3.275337585352    0.956648505013
 H   -3.803802267680    5.209683971713    0.141466105518
RB    3.163218095628   -4.609361645965   -0.126637523380
