16

 N   -3.206405707041    4.492217107478    0.123404597047
 C   -1.835790294632    4.691691785319    0.119772962671
 H   -1.514005998294    5.735436716195    0.141191778364
 C   -3.806120976470    3.239101947925    0.098874606391
 O   -5.023895008002    3.072159241858    0.099870687165
 N   -2.880814960859    2.202324338083    0.071218069402
 H   -3.275388668722    1.263810028234    0.050709196004
 C   -1.475084582464    2.288363050401    0.062770018611
 O   -0.786763910036    1.264745828599    0.034662080058
 C   -0.945315401399    3.656751919135    0.091376387745
 C    0.546974492207    3.840610244597    0.086545577919
 H    0.808522121287    4.909038121465    0.109199746066
 H    0.987118805797    3.382290025175   -0.812562673527
 H    0.997979698916    3.342123759291    0.958482414832
 H   -3.848711930370    5.276470145652    0.143300015337
RB    3.229881928452   -4.708498937758   -0.129359776237
