16

 N   -3.228860538386    4.525610194448    0.124321551956
 C   -1.858245125977    4.725084872289    0.120689917580
 H   -1.536460829639    5.768829803165    0.142108733273
 C   -3.828575807815    3.272495034895    0.099791561300
 O   -5.046349839347    3.105552328828    0.100787642074
 N   -2.903269792204    2.235717425053    0.072135024311
 H   -3.297843500067    1.297203115204    0.051626150913
 C   -1.497539413809    2.321756137371    0.063686973520
 O   -0.809218741381    1.298138915569    0.035579034967
 C   -0.967770232744    3.690145006105    0.092293342654
 C    0.524519660862    3.874003331567    0.087462532828
 H    0.786067289942    4.942431208435    0.110116700975
 H    0.964663974452    3.415683112145   -0.811645718618
 H    0.975524867571    3.375516846261    0.959399369741
 H   -3.871166761715    5.309863232622    0.144216970246
RB    3.263213844864   -4.758067583654   -0.130720902665
