16

 N   -3.273770201076    4.592396368387    0.126155461774
 C   -1.903154788667    4.791871046228    0.122523827398
 H   -1.581370492329    5.835615977104    0.143942643091
 C   -3.873485470505    3.339281208834    0.101625471118
 O   -5.091259502037    3.172338502767    0.102621551892
 N   -2.948179454894    2.302503598992    0.073968934129
 H   -3.342753162757    1.363989289143    0.053460060731
 C   -1.542449076499    2.388542311310    0.065520883338
 O   -0.854128404071    1.364925089508    0.037412944785
 C   -1.012679895434    3.756931180044    0.094127252472
 C    0.479609998172    3.940789505506    0.089296442646
 H    0.741157627252    5.009217382374    0.111950610793
 H    0.919754311762    3.482469286084   -0.809811808800
 H    0.930615204881    3.442303020200    0.961233279559
 H   -3.916076424405    5.376649406561    0.146050880064
RB    3.329877677688   -4.857204875447   -0.133443155521
