16

 N   -3.296225032421    4.625789455357    0.127072416683
 C   -1.925609620012    4.825264133198    0.123440782307
 H   -1.603825323674    5.869009064074    0.144859598000
 C   -3.895940301850    3.372674295804    0.102542426027
 O   -5.113714333382    3.205731589737    0.103538506801
 N   -2.970634286239    2.335896685962    0.074885889038
 H   -3.365207994102    1.397382376113    0.054377015640
 C   -1.564903907844    2.421935398280    0.066437838247
 O   -0.876583235416    1.398318176478    0.038329899694
 C   -1.035134726779    3.790324267014    0.095044207381
 C    0.457155166827    3.974182592476    0.090213397555
 H    0.718702795907    5.042610469344    0.112867565702
 H    0.897299480417    3.515862373054   -0.808894853891
 H    0.908160373536    3.475696107170    0.962150234468
 H   -3.938531255750    5.410042493531    0.146967834973
RB    3.363209594099   -4.906773521344   -0.134804281950
