16

 N   -3.386044357801    4.759361803235    0.130740236320
 C   -2.015428945392    4.958836481076    0.127108601944
 H   -1.693644649054    6.002581411952    0.148527417637
 C   -3.985759627230    3.506246643682    0.106210245664
 O   -5.203533658762    3.339303937615    0.107206326438
 N   -3.060453611619    2.469469033840    0.078553708675
 H   -3.455027319482    1.530954723991    0.058044835277
 C   -1.654723233224    2.555507746158    0.070105657884
 O   -0.966402560796    1.531890524356    0.041997719331
 C   -1.124954052159    3.923896614892    0.098712027018
 C    0.367335841447    4.107754940354    0.093881217192
 H    0.628883470527    5.176182817222    0.116535385339
 H    0.807480155037    3.649434720932   -0.805227034254
 H    0.818341048156    3.609268455048    0.965818054105
 H   -4.028350581130    5.543614841409    0.150635654610
RB    3.496537259747   -5.105048104930   -0.140248787663
