16

 N   -3.408499189146    4.792754890205    0.131657191229
 C   -2.037883776737    4.992229568046    0.128025556853
 H   -1.716099480399    6.035974498922    0.149444372546
 C   -4.008214458575    3.539639730652    0.107127200573
 O   -5.225988490107    3.372697024585    0.108123281347
 N   -3.082908442964    2.502862120810    0.079470663584
 H   -3.477482150827    1.564347810961    0.058961790186
 C   -1.677178064569    2.588900833128    0.071022612793
 O   -0.988857392141    1.565283611326    0.042914674240
 C   -1.147408883504    3.957289701862    0.099628981927
 C    0.344881010102    4.141148027324    0.094798172101
 H    0.606428639182    5.209575904192    0.117452340248
 H    0.785025323692    3.682827807902   -0.804310079345
 H    0.795886216811    3.642661542018    0.966735009014
 H   -4.050805412475    5.577007928379    0.151552609519
RB    3.529869176158   -5.154616750826   -0.141609914091
