16

 N   -3.453408851836    4.859541064144    0.133491101048
 C   -2.082793439427    5.059015741985    0.129859466672
 H   -1.761009143089    6.102760672861    0.151278282365
 C   -4.053124121265    3.606425904591    0.108961110392
 O   -5.270898152797    3.439483198524    0.109957191166
 N   -3.127818105654    2.569648294749    0.081304573403
 H   -3.522391813517    1.631133984900    0.060795700005
 C   -1.722087727259    2.655687007067    0.072856522612
 O   -1.033767054831    1.632069785265    0.044748584059
 C   -1.192318546194    4.024075875801    0.101462891746
 C    0.299971347412    4.207934201263    0.096632081920
 H    0.561518976492    5.276362078131    0.119286250067
 H    0.740115661002    3.749613981841   -0.802476169526
 H    0.750976554121    3.709447715957    0.968568918833
 H   -4.095715075165    5.643794102318    0.153386519338
RB    3.596533008982   -5.253754042619   -0.144332166947
