16

 N   -3.475863683181    4.892934151113    0.134408055957
 C   -2.105248270772    5.092408828954    0.130776421581
 H   -1.783463974434    6.136153759830    0.152195237274
 C   -4.075578952610    3.639818991560    0.109878065301
 O   -5.293352984142    3.472876285493    0.110874146075
 N   -3.150272936999    2.603041381718    0.082221528312
 H   -3.544846644862    1.664527071869    0.061712654914
 C   -1.744542558604    2.689080094036    0.073773477521
 O   -1.056221886176    1.665462872234    0.045665538968
 C   -1.214773377539    4.057468962770    0.102379846655
 C    0.277516516067    4.241327288232    0.097549036829
 H    0.539064145147    5.309755165100    0.120203204976
 H    0.717660829657    3.783007068810   -0.801559214617
 H    0.728521722776    3.742840802926    0.969485873742
 H   -4.118169906510    5.677187189287    0.154303474247
RB    3.629864925394   -5.303322688516   -0.145693293376
