16

 N   -3.498318514526    4.926327238083    0.135325010866
 C   -2.127703102117    5.125801915924    0.131693376490
 H   -1.805918805779    6.169546846800    0.153112192183
 C   -4.098033783955    3.673212078530    0.110795020210
 O   -5.315807815487    3.506269372463    0.111791100984
 N   -3.172727768344    2.636434468688    0.083138483221
 H   -3.567301476207    1.697920158839    0.062629609823
 C   -1.766997389949    2.722473181006    0.074690432430
 O   -1.078676717521    1.698855959204    0.046582493877
 C   -1.237228208884    4.090862049740    0.103296801564
 C    0.255061684722    4.274720375202    0.098465991738
 H    0.516609313802    5.343148252070    0.121120159885
 H    0.695205998312    3.816400155780   -0.800642259708
 H    0.706066891431    3.776233889896    0.970402828651
 H   -4.140624737855    5.710580276257    0.155220429156
RB    3.663196841806   -5.352891334412   -0.147054419804
