16

 N   -3.588137839906    5.059899585961    0.138992830503
 C   -2.217522427497    5.259374263802    0.135361196127
 H   -1.895738131159    6.303119194678    0.156780011820
 C   -4.187853109335    3.806784426408    0.114462839847
 O   -5.405627140867    3.639841720341    0.115458920621
 N   -3.262547093724    2.770006816566    0.086806302858
 H   -3.657120801587    1.831492506717    0.066297429460
 C   -1.856816715329    2.856045528884    0.078358252067
 O   -1.168496042901    1.832428307082    0.050250313514
 C   -1.327047534264    4.224434397618    0.106964621201
 C    0.165242359342    4.408292723080    0.102133811375
 H    0.426789988422    5.476720599948    0.124787979522
 H    0.605386672932    3.949972503658   -0.796974440071
 H    0.616247566051    3.909806237774    0.974070648288
 H   -4.230444063235    5.844152624135    0.158888248793
RB    3.796524507453   -5.551165917998   -0.152498925517
