16

 N   -3.610592671251    5.093292672931    0.139909785412
 C   -2.239977258842    5.292767350772    0.136278151036
 H   -1.918192962504    6.336512281648    0.157696966729
 C   -4.210307940680    3.840177513378    0.115379794756
 O   -5.428081972212    3.673234807311    0.116375875530
 N   -3.285001925069    2.803399903536    0.087723257767
 H   -3.679575632932    1.864885593687    0.067214384369
 C   -1.879271546674    2.889438615854    0.079275206976
 O   -1.190950874246    1.865821394052    0.051167268423
 C   -1.349502365609    4.257827484588    0.107881576110
 C    0.142787527997    4.441685810050    0.103050766284
 H    0.404335157077    5.510113686918    0.125704934431
 H    0.582931841587    3.983365590628   -0.796057485162
 H    0.593792734706    3.943199324744    0.974987603197
 H   -4.252898894580    5.877545711105    0.159805203702
RB    3.829856423865   -5.600734563894   -0.153860051945
