16

 N   -3.633047502596    5.126685759901    0.140826740321
 C   -2.262432090187    5.326160437742    0.137195105945
 H   -1.940647793849    6.369905368618    0.158613921638
 C   -4.232762772025    3.873570600348    0.116296749665
 O   -5.450536803557    3.706627894281    0.117292830439
 N   -3.307456756414    2.836792990506    0.088640212676
 H   -3.702030464277    1.898278680657    0.068131339278
 C   -1.901726378019    2.922831702824    0.080192161885
 O   -1.213405705591    1.899214481022    0.052084223332
 C   -1.371957196954    4.291220571558    0.108798531019
 C    0.120332696652    4.475078897020    0.103967721193
 H    0.381880325732    5.543506773888    0.126621889340
 H    0.560477010242    4.016758677598   -0.795140530253
 H    0.571337903361    3.976592411714    0.975904558106
 H   -4.275353725925    5.910938798075    0.160722158611
RB    3.863188340277   -5.650303209791   -0.155221178373
