16

 N   -3.700411996630    5.226865020809    0.143577605048
 C   -2.329796584221    5.426339698650    0.139945970672
 H   -2.008012287883    6.470084629526    0.161364786365
 C   -4.300127266059    3.973749861256    0.119047614392
 O   -5.517901297591    3.806807155189    0.120043695166
 N   -3.374821250448    2.936972251414    0.091391077403
 H   -3.769394958311    1.998457941565    0.070882204005
 C   -1.969090872053    3.023010963732    0.082943026612
 O   -1.280770199625    1.999393741930    0.054835088059
 C   -1.439321690988    4.391399832466    0.111549395746
 C    0.052968202618    4.575258157928    0.106718585920
 H    0.314515831698    5.643686034796    0.129372754067
 H    0.493112516208    4.116937938506   -0.792389665526
 H    0.503973409327    4.076771672622    0.978655422833
 H   -4.342718219959    6.011118058983    0.163473023338
RB    3.963184089512   -5.799009147480   -0.159304557658
