16

 N   -3.722866827975    5.260258107779    0.144494559958
 C   -2.352251415566    5.459732785620    0.140862925582
 H   -2.030467119228    6.503477716496    0.162281741275
 C   -4.322582097404    4.007142948226    0.119964569302
 O   -5.540356128936    3.840200242159    0.120960650076
 N   -3.397276081793    2.970365338384    0.092308032313
 H   -3.791849789656    2.031851028535    0.071799158915
 C   -1.991545703398    3.056404050702    0.083859981522
 O   -1.303225030970    2.032786828900    0.055752042969
 C   -1.461776522333    4.424792919436    0.112466350656
 C    0.030513371273    4.608651244898    0.107635540830
 H    0.292061000353    5.677079121766    0.130289708977
 H    0.470657684863    4.150331025476   -0.791472710616
 H    0.481518577982    4.110164759592    0.979572377743
 H   -4.365173051304    6.044511145953    0.164389978248
RB    3.996516005924   -5.848577793377   -0.160665684086
