16

 N   -3.767776490665    5.327044281718    0.146328469776
 C   -2.397161078256    5.526518959559    0.142696835400
 H   -2.075376781918    6.570263890435    0.164115651093
 C   -4.367491760094    4.073929122165    0.121798479120
 O   -5.585265791626    3.906986416098    0.122794559894
 N   -3.442185744483    3.037151512323    0.094141942131
 H   -3.836759452346    2.098637202474    0.073633068733
 C   -2.036455366088    3.123190224641    0.085693891340
 O   -1.348134693660    2.099573002839    0.057585952787
 C   -1.506686185023    4.491579093375    0.114300260474
 C   -0.014396291417    4.675437418837    0.109469450648
 H    0.247151337663    5.743865295705    0.132123618795
 H    0.425748022173    4.217117199415   -0.789638800798
 H    0.436608915292    4.176950933531    0.981406287561
 H   -4.410082713994    6.111297319892    0.166223888066
RB    4.063179838748   -5.947715085170   -0.163387936943
