16

 N   -3.812686153355    5.393830455657    0.148162379594
 C   -2.442070740946    5.593305133498    0.144530745218
 H   -2.120286444608    6.637050064374    0.165949560911
 C   -4.412401422784    4.140715296104    0.123632388938
 O   -5.630175454316    3.973772590037    0.124628469712
 N   -3.487095407173    3.103937686262    0.095975851949
 H   -3.881669115036    2.165423376413    0.075466978551
 C   -2.081365028778    3.189976398580    0.087527801158
 O   -1.393044356350    2.166359176778    0.059419862605
 C   -1.551595847713    4.558365267314    0.116134170292
 C   -0.059305954107    4.742223592776    0.111303360466
 H    0.202241674973    5.810651469644    0.133957528613
 H    0.380838359483    4.283903373354   -0.787804890980
 H    0.391699252602    4.243737107470    0.983240197379
 H   -4.454992376684    6.178083493831    0.168057797884
RB    4.129843671571   -6.046852376963   -0.166110189799
