9

 C   -0.884581883147   -2.597729487649    0.000000000000
 H   -1.863508883147   -2.105941487649    0.000000000000
 H   -0.777435883147   -3.237538487649    0.888272000000
 H   -0.777435883147   -3.237538487649   -0.888272000000
 C    0.200045116853   -1.552145487649    0.000000000000
 O    0.038941116853   -0.342594487649    0.000000000000
 O    1.442331116853   -2.129153487649    0.000000000000
 H    2.076867116853   -1.390590487649    0.000000000000
CS   -0.106288873656    0.747776206132    0.000000000000
