9

 C   -0.875486639202   -2.666015572469    0.000000000000
 H   -1.854413639202   -2.174227572469    0.000000000000
 H   -0.768340639202   -3.305824572469    0.888272000000
 H   -0.768340639202   -3.305824572469   -0.888272000000
 C    0.209140360798   -1.620431572469    0.000000000000
 O    0.048036360798   -0.410880572469    0.000000000000
 O    1.451426360798   -2.197439572469    0.000000000000
 H    2.085962360798   -1.458876572469    0.000000000000
CS   -0.110396356122    0.778614729838    0.000000000000
