9

 C   -0.848200907367   -2.870873826927    0.000000000000
 H   -1.827127907367   -2.379085826927    0.000000000000
 H   -0.741054907367   -3.510682826927    0.888272000000
 H   -0.741054907367   -3.510682826927   -0.888272000000
 C    0.236426092633   -1.825289826927    0.000000000000
 O    0.075322092633   -0.615738826927    0.000000000000
 O    1.478712092633   -2.402297826927    0.000000000000
 H    2.113248092633   -1.663734826927    0.000000000000
CS   -0.122718803517    0.871130300956    0.000000000000
