9

 C   -0.839105663423   -2.939159911746    0.000000000000
 H   -1.818032663423   -2.447371911746    0.000000000000
 H   -0.731959663423   -3.578968911746    0.888272000000
 H   -0.731959663423   -3.578968911746   -0.888272000000
 C    0.245521336577   -1.893575911746    0.000000000000
 O    0.084417336577   -0.684024911746    0.000000000000
 O    1.487807336577   -2.470583911746    0.000000000000
 H    2.122343336577   -1.732020911746    0.000000000000
CS   -0.126826285982    0.901968824663    0.000000000000
