9

 C   -0.830010419478   -3.007445996566    0.000000000000
 H   -1.808937419478   -2.515657996566    0.000000000000
 H   -0.722864419478   -3.647254996566    0.888272000000
 H   -0.722864419478   -3.647254996566   -0.888272000000
 C    0.254616580522   -1.961861996566    0.000000000000
 O    0.093512580522   -0.752310996566    0.000000000000
 O    1.496902580522   -2.538869996566    0.000000000000
 H    2.131438580522   -1.800306996566    0.000000000000
CS   -0.130933768447    0.932807348369    0.000000000000
