9

 C   -0.820915175533   -3.075732081385    0.000000000000
 H   -1.799842175533   -2.583944081385    0.000000000000
 H   -0.713769175533   -3.715541081385    0.888272000000
 H   -0.713769175533   -3.715541081385   -0.888272000000
 C    0.263711824467   -2.030148081385    0.000000000000
 O    0.102607824467   -0.820597081385    0.000000000000
 O    1.505997824467   -2.607156081385    0.000000000000
 H    2.140533824467   -1.868593081385    0.000000000000
CS   -0.135041250912    0.963645872075    0.000000000000
