9

 C   -0.793629443698   -3.280590335843    0.000000000000
 H   -1.772556443698   -2.788802335843    0.000000000000
 H   -0.686483443698   -3.920399335843    0.888272000000
 H   -0.686483443698   -3.920399335843   -0.888272000000
 C    0.290997556302   -2.235006335843    0.000000000000
 O    0.129893556302   -1.025455335843    0.000000000000
 O    1.533283556302   -2.812014335843    0.000000000000
 H    2.167819556302   -2.073451335843    0.000000000000
CS   -0.147363698308    1.056161443194    0.000000000000
