9

 C   -0.766343711864   -3.485448590301    0.000000000000
 H   -1.745270711864   -2.993660590301    0.000000000000
 H   -0.659197711864   -4.125257590301    0.888272000000
 H   -0.659197711864   -4.125257590301   -0.888272000000
 C    0.318283288136   -2.439864590301    0.000000000000
 O    0.157179288136   -1.230313590301    0.000000000000
 O    1.560569288136   -3.016872590301    0.000000000000
 H    2.195105288136   -2.278309590301    0.000000000000
CS   -0.159686145703    1.148677014312    0.000000000000
