9

 C   -0.757248467919   -3.553734675120    0.000000000000
 H   -1.736175467919   -3.061946675120    0.000000000000
 H   -0.650102467919   -4.193543675120    0.888272000000
 H   -0.650102467919   -4.193543675120   -0.888272000000
 C    0.327378532081   -2.508150675120    0.000000000000
 O    0.166274532081   -1.298599675120    0.000000000000
 O    1.569664532081   -3.085158675120    0.000000000000
 H    2.204200532081   -2.346595675120    0.000000000000
CS   -0.163793628168    1.179515538018    0.000000000000
