9

 C   -0.739057980029   -3.690306844759    0.000000000000
 H   -1.717984980029   -3.198518844759    0.000000000000
 H   -0.631911980029   -4.330115844759    0.888272000000
 H   -0.631911980029   -4.330115844759   -0.888272000000
 C    0.345569019971   -2.644722844759    0.000000000000
 O    0.184465019971   -1.435171844759    0.000000000000
 O    1.587855019971   -3.221730844759    0.000000000000
 H    2.222391019971   -2.483167844759    0.000000000000
CS   -0.172008593098    1.241192585431    0.000000000000
