9

 C   -0.711772248195   -3.895165099217    0.000000000000
 H   -1.690699248195   -3.403377099217    0.000000000000
 H   -0.604626248195   -4.534974099217    0.888272000000
 H   -0.604626248195   -4.534974099217   -0.888272000000
 C    0.372854751805   -2.849581099217    0.000000000000
 O    0.211750751805   -1.640030099217    0.000000000000
 O    1.615140751805   -3.426589099217    0.000000000000
 H    2.249676751805   -2.688026099217    0.000000000000
CS   -0.184331040494    1.333708156549    0.000000000000
