9

 C   -0.702677004250   -3.963451184037    0.000000000000
 H   -1.681604004250   -3.471663184037    0.000000000000
 H   -0.595531004250   -4.603260184037    0.888272000000
 H   -0.595531004250   -4.603260184037   -0.888272000000
 C    0.381949995750   -2.917867184037    0.000000000000
 O    0.220845995750   -1.708316184037    0.000000000000
 O    1.624235995750   -3.494875184037    0.000000000000
 H    2.258771995750   -2.756312184037    0.000000000000
CS   -0.188438522959    1.364546680255    0.000000000000
