9

 C   -0.666296028470   -4.236595523314    0.000000000000
 H   -1.645223028470   -3.744807523314    0.000000000000
 H   -0.559150028470   -4.876404523314    0.888272000000
 H   -0.559150028470   -4.876404523314   -0.888272000000
 C    0.418330971530   -3.191011523314    0.000000000000
 O    0.257226971530   -1.981460523314    0.000000000000
 O    1.660616971530   -3.768019523314    0.000000000000
 H    2.295152971530   -3.029456523314    0.000000000000
CS   -0.204868452819    1.487900775080    0.000000000000
