9

 C   -0.620819808746   -4.578025947411    0.000000000000
 H   -1.599746808746   -4.086237947411    0.000000000000
 H   -0.513673808746   -5.217834947411    0.888272000000
 H   -0.513673808746   -5.217834947411   -0.888272000000
 C    0.463807191254   -3.532441947411    0.000000000000
 O    0.302703191254   -2.322890947411    0.000000000000
 O    1.706093191254   -4.109449947411    0.000000000000
 H    2.340629191254   -3.370886947411    0.000000000000
CS   -0.225405865145    1.642093393611    0.000000000000
