9

 C   -0.584438832967   -4.851170286688    0.000000000000
 H   -1.563365832967   -4.359382286688    0.000000000000
 H   -0.477292832967   -5.490979286688    0.888272000000
 H   -0.477292832967   -5.490979286688   -0.888272000000
 C    0.500188167033   -3.805586286688    0.000000000000
 O    0.339084167033   -2.596035286688    0.000000000000
 O    1.742474167033   -4.382594286688    0.000000000000
 H    2.377010167033   -3.644031286688    0.000000000000
CS   -0.241835795005    1.765447488436    0.000000000000
