9

 C   -0.548057857187   -5.124314625966    0.000000000000
 H   -1.526984857187   -4.632526625966    0.000000000000
 H   -0.440911857187   -5.764123625966    0.888272000000
 H   -0.440911857187   -5.764123625966   -0.888272000000
 C    0.536569142813   -4.078730625966    0.000000000000
 O    0.375465142813   -2.869179625966    0.000000000000
 O    1.778855142813   -4.655738625966    0.000000000000
 H    2.413391142813   -3.917175625966    0.000000000000
CS   -0.258265724866    1.888801583261    0.000000000000
