9

 C   -0.511676881408   -5.397458965243    0.000000000000
 H   -1.490603881408   -4.905670965243    0.000000000000
 H   -0.404530881408   -6.037267965243    0.888272000000
 H   -0.404530881408   -6.037267965243   -0.888272000000
 C    0.572950118592   -4.351874965243    0.000000000000
 O    0.411846118592   -3.142323965243    0.000000000000
 O    1.815236118592   -4.928882965243    0.000000000000
 H    2.449772118592   -4.190319965243    0.000000000000
CS   -0.274695654726    2.012155678085    0.000000000000
