9

 C   -0.484391149573   -5.602317219701    0.000000000000
 H   -1.463318149573   -5.110529219701    0.000000000000
 H   -0.377245149573   -6.242126219701    0.888272000000
 H   -0.377245149573   -6.242126219701   -0.888272000000
 C    0.600235850427   -4.556733219701    0.000000000000
 O    0.439131850427   -3.347182219701    0.000000000000
 O    1.842521850427   -5.133741219701    0.000000000000
 H    2.477057850427   -4.395178219701    0.000000000000
CS   -0.287018102121    2.104671249204    0.000000000000
