9

 C   -0.466200661684   -5.738889389340    0.000000000000
 H   -1.445127661684   -5.247101389340    0.000000000000
 H   -0.359054661684   -6.378698389340    0.888272000000
 H   -0.359054661684   -6.378698389340   -0.888272000000
 C    0.618426338316   -4.693305389340    0.000000000000
 O    0.457322338316   -3.483754389340    0.000000000000
 O    1.860712338316   -5.270313389340    0.000000000000
 H    2.495248338316   -4.531750389340    0.000000000000
CS   -0.295233067052    2.166348296616    0.000000000000
