9

 C   -0.457105417739   -5.807175474159    0.000000000000
 H   -1.436032417739   -5.315387474159    0.000000000000
 H   -0.349959417739   -6.446984474159    0.888272000000
 H   -0.349959417739   -6.446984474159   -0.888272000000
 C    0.627521582261   -4.761591474159    0.000000000000
 O    0.466417582261   -3.552040474159    0.000000000000
 O    1.869807582261   -5.338599474159    0.000000000000
 H    2.504343582261   -4.600036474159    0.000000000000
CS   -0.299340549517    2.197186820323    0.000000000000
