9

 C   -0.448010173794   -5.875461558979    0.000000000000
 H   -1.426937173794   -5.383673558979    0.000000000000
 H   -0.340864173794   -6.515270558979    0.888272000000
 H   -0.340864173794   -6.515270558979   -0.888272000000
 C    0.636616826206   -4.829877558979    0.000000000000
 O    0.475512826206   -3.620326558979    0.000000000000
 O    1.878902826206   -5.406885558979    0.000000000000
 H    2.513438826206   -4.668322558979    0.000000000000
CS   -0.303448031982    2.228025344029    0.000000000000
