9

 C   -0.429819685904   -6.012033728617    0.000000000000
 H   -1.408746685904   -5.520245728617    0.000000000000
 H   -0.322673685904   -6.651842728617    0.888272000000
 H   -0.322673685904   -6.651842728617   -0.888272000000
 C    0.654807314096   -4.966449728617    0.000000000000
 O    0.493703314096   -3.756898728617    0.000000000000
 O    1.897093314096   -5.543457728617    0.000000000000
 H    2.531629314096   -4.804894728617    0.000000000000
CS   -0.311662996912    2.289702391441    0.000000000000
