9

 C   -0.411629198015   -6.148605898256    0.000000000000
 H   -1.390556198015   -5.656817898256    0.000000000000
 H   -0.304483198015   -6.788414898256    0.888272000000
 H   -0.304483198015   -6.788414898256   -0.888272000000
 C    0.672997801985   -5.103021898256    0.000000000000
 O    0.511893801985   -3.893470898256    0.000000000000
 O    1.915283801985   -5.680029898256    0.000000000000
 H    2.549819801985   -4.941466898256    0.000000000000
CS   -0.319877961842    2.351379438854    0.000000000000
