9

 C   -0.384343466180   -6.353464152714    0.000000000000
 H   -1.363270466180   -5.861676152714    0.000000000000
 H   -0.277197466180   -6.993273152714    0.888272000000
 H   -0.277197466180   -6.993273152714   -0.888272000000
 C    0.700283533820   -5.307880152714    0.000000000000
 O    0.539179533820   -4.098329152714    0.000000000000
 O    1.942569533820   -5.884888152714    0.000000000000
 H    2.577105533820   -5.146325152714    0.000000000000
CS   -0.332200409238    2.443895009972    0.000000000000
