9

 C   -0.366152978290   -6.490036322353    0.000000000000
 H   -1.345079978290   -5.998248322353    0.000000000000
 H   -0.259006978290   -7.129845322353    0.888272000000
 H   -0.259006978290   -7.129845322353   -0.888272000000
 C    0.718474021710   -5.444452322353    0.000000000000
 O    0.557370021710   -4.234901322353    0.000000000000
 O    1.960760021710   -6.021460322353    0.000000000000
 H    2.595296021710   -5.282897322353    0.000000000000
CS   -0.340415374168    2.505572057384    0.000000000000
