9

 C   -0.357057734345   -6.558322407172    0.000000000000
 H   -1.335984734345   -6.066534407172    0.000000000000
 H   -0.249911734345   -7.198131407172    0.888272000000
 H   -0.249911734345   -7.198131407172   -0.888272000000
 C    0.727569265655   -5.512738407172    0.000000000000
 O    0.566465265655   -4.303187407172    0.000000000000
 O    1.969855265655   -6.089746407172    0.000000000000
 H    2.604391265655   -5.351183407172    0.000000000000
CS   -0.344522856633    2.536410581091    0.000000000000
