9

 C   -0.329772002511   -6.763180661630    0.000000000000
 H   -1.308699002511   -6.271392661630    0.000000000000
 H   -0.222626002511   -7.402989661630    0.888272000000
 H   -0.222626002511   -7.402989661630   -0.888272000000
 C    0.754854997489   -5.717596661630    0.000000000000
 O    0.593750997489   -4.508045661630    0.000000000000
 O    1.997140997489   -6.294604661630    0.000000000000
 H    2.631676997489   -5.556041661630    0.000000000000
CS   -0.356845304028    2.628926152209    0.000000000000
