9

 C   -0.311581514621   -6.899752831269    0.000000000000
 H   -1.290508514621   -6.407964831269    0.000000000000
 H   -0.204435514621   -7.539561831269    0.888272000000
 H   -0.204435514621   -7.539561831269   -0.888272000000
 C    0.773045485379   -5.854168831269    0.000000000000
 O    0.611941485379   -4.644617831269    0.000000000000
 O    2.015331485379   -6.431176831269    0.000000000000
 H    2.649867485379   -5.692613831269    0.000000000000
CS   -0.365060268959    2.690603199622    0.000000000000
