9

 C   -0.302486270676   -6.968038916088    0.000000000000
 H   -1.281413270676   -6.476250916088    0.000000000000
 H   -0.195340270676   -7.607847916088    0.888272000000
 H   -0.195340270676   -7.607847916088   -0.888272000000
 C    0.782140729324   -5.922454916088    0.000000000000
 O    0.621036729324   -4.712903916088    0.000000000000
 O    2.024426729324   -6.499462916088    0.000000000000
 H    2.658962729324   -5.760899916088    0.000000000000
CS   -0.369167751424    2.721441723328    0.000000000000
