9

 C   -0.284295782787   -7.104611085727    0.000000000000
 H   -1.263222782787   -6.612823085727    0.000000000000
 H   -0.177149782787   -7.744420085727    0.888272000000
 H   -0.177149782787   -7.744420085727   -0.888272000000
 C    0.800331217213   -6.059027085727    0.000000000000
 O    0.639227217213   -4.849476085727    0.000000000000
 O    2.042617217213   -6.636035085727    0.000000000000
 H    2.677153217213   -5.897472085727    0.000000000000
CS   -0.377382716354    2.783118770740    0.000000000000
