9

 C   -0.275200538842   -7.172897170547    0.000000000000
 H   -1.254127538842   -6.681109170547    0.000000000000
 H   -0.168054538842   -7.812706170547    0.888272000000
 H   -0.168054538842   -7.812706170547   -0.888272000000
 C    0.809426461158   -6.127313170547    0.000000000000
 O    0.648322461158   -4.917762170547    0.000000000000
 O    2.051712461158   -6.704321170547    0.000000000000
 H    2.686248461158   -5.965758170547    0.000000000000
CS   -0.381490198819    2.813957294446    0.000000000000
