9

 C   -0.266105294897   -7.241183255366    0.000000000000
 H   -1.245032294897   -6.749395255366    0.000000000000
 H   -0.158959294897   -7.880992255366    0.888272000000
 H   -0.158959294897   -7.880992255366   -0.888272000000
 C    0.818521705103   -6.195599255366    0.000000000000
 O    0.657417705103   -4.986048255366    0.000000000000
 O    2.060807705103   -6.772607255366    0.000000000000
 H    2.695343705103   -6.034044255366    0.000000000000
CS   -0.385597681284    2.844795818153    0.000000000000
