9

 C   -0.257010050952   -7.309469340185    0.000000000000
 H   -1.235937050952   -6.817681340185    0.000000000000
 H   -0.149864050952   -7.949278340185    0.888272000000
 H   -0.149864050952   -7.949278340185   -0.888272000000
 C    0.827616949048   -6.263885340185    0.000000000000
 O    0.666512949048   -5.054334340185    0.000000000000
 O    2.069902949048   -6.840893340185    0.000000000000
 H    2.704438949048   -6.102330340185    0.000000000000
CS   -0.389705163749    2.875634341859    0.000000000000
