9

 C   -0.247914807007   -7.377755425005    0.000000000000
 H   -1.226841807007   -6.885967425005    0.000000000000
 H   -0.140768807007   -8.017564425005    0.888272000000
 H   -0.140768807007   -8.017564425005   -0.888272000000
 C    0.836712192993   -6.332171425005    0.000000000000
 O    0.675608192993   -5.122620425005    0.000000000000
 O    2.078998192993   -6.909179425005    0.000000000000
 H    2.713534192993   -6.170616425005    0.000000000000
CS   -0.393812646214    2.906472865565    0.000000000000
