9

 C   -0.238819563062   -7.446041509824    0.000000000000
 H   -1.217746563062   -6.954253509824    0.000000000000
 H   -0.131673563062   -8.085850509824    0.888272000000
 H   -0.131673563062   -8.085850509824   -0.888272000000
 C    0.845807436938   -6.400457509824    0.000000000000
 O    0.684703436938   -5.190906509824    0.000000000000
 O    2.088093436938   -6.977465509824    0.000000000000
 H    2.722629436938   -6.238902509824    0.000000000000
CS   -0.397920128680    2.937311389271    0.000000000000
