9

 C   -0.229724319118   -7.514327594643    0.000000000000
 H   -1.208651319118   -7.022539594643    0.000000000000
 H   -0.122578319118   -8.154136594643    0.888272000000
 H   -0.122578319118   -8.154136594643   -0.888272000000
 C    0.854902680882   -6.468743594643    0.000000000000
 O    0.693798680882   -5.259192594643    0.000000000000
 O    2.097188680882   -7.045751594643    0.000000000000
 H    2.731724680882   -6.307188594643    0.000000000000
CS   -0.402027611145    2.968149912977    0.000000000000
