9

 C   -0.220629075173   -7.582613679463    0.000000000000
 H   -1.199556075173   -7.090825679463    0.000000000000
 H   -0.113483075173   -8.222422679463    0.888272000000
 H   -0.113483075173   -8.222422679463   -0.888272000000
 C    0.863997924827   -6.537029679463    0.000000000000
 O    0.702893924827   -5.327478679463    0.000000000000
 O    2.106283924827   -7.114037679463    0.000000000000
 H    2.740819924827   -6.375474679463    0.000000000000
CS   -0.406135093610    2.998988436683    0.000000000000
