9

 C   -0.175152855448   -7.924044103560    0.000000000000
 H   -1.154079855448   -7.432256103560    0.000000000000
 H   -0.068006855448   -8.563853103560    0.888272000000
 H   -0.068006855448   -8.563853103560   -0.888272000000
 C    0.909474144552   -6.878460103560    0.000000000000
 O    0.748370144552   -5.668909103560    0.000000000000
 O    2.151760144552   -7.455468103560    0.000000000000
 H    2.786296144552   -6.716905103560    0.000000000000
CS   -0.426672505935    3.153181055214    0.000000000000
