9

 C   -0.156962367559   -8.060616273198    0.000000000000
 H   -1.135889367559   -7.568828273198    0.000000000000
 H   -0.049816367559   -8.700425273198    0.888272000000
 H   -0.049816367559   -8.700425273198   -0.888272000000
 C    0.927664632441   -7.015032273198    0.000000000000
 O    0.766560632441   -5.805481273198    0.000000000000
 O    2.169950632441   -7.592040273198    0.000000000000
 H    2.804486632441   -6.853477273198    0.000000000000
CS   -0.434887470866    3.214858102627    0.000000000000
