9

 C   -0.120581391779   -8.333760612476    0.000000000000
 H   -1.099508391779   -7.841972612476    0.000000000000
 H   -0.013435391779   -8.973569612476    0.888272000000
 H   -0.013435391779   -8.973569612476   -0.888272000000
 C    0.964045608221   -7.288176612476    0.000000000000
 O    0.802941608221   -6.078625612476    0.000000000000
 O    2.206331608221   -7.865184612476    0.000000000000
 H    2.840867608221   -7.126621612476    0.000000000000
CS   -0.451317400726    3.338212197452    0.000000000000
