9

 C   -0.111486147834   -8.402046697295    0.000000000000
 H   -1.090413147834   -7.910258697295    0.000000000000
 H   -0.004340147834   -9.041855697295    0.888272000000
 H   -0.004340147834   -9.041855697295   -0.888272000000
 C    0.973140852166   -7.356462697295    0.000000000000
 O    0.812036852166   -6.146911697295    0.000000000000
 O    2.215426852166   -7.933470697295    0.000000000000
 H    2.849962852166   -7.194907697295    0.000000000000
CS   -0.455424883191    3.369050721158    0.000000000000
