9

 C   -0.102390903890   -8.470332782114    0.000000000000
 H   -1.081317903890   -7.978544782114    0.000000000000
 H    0.004755096110   -9.110141782114    0.888272000000
 H    0.004755096110   -9.110141782114   -0.888272000000
 C    0.982236096110   -7.424748782114    0.000000000000
 O    0.821132096110   -6.215197782114    0.000000000000
 O    2.224522096110   -8.001756782114    0.000000000000
 H    2.859058096110   -7.263193782114    0.000000000000
CS   -0.459532365656    3.399889244864    0.000000000000
