9

 C   -0.093295659945   -8.538618866934    0.000000000000
 H   -1.072222659945   -8.046830866934    0.000000000000
 H    0.013850340055   -9.178427866934    0.888272000000
 H    0.013850340055   -9.178427866934   -0.888272000000
 C    0.991331340055   -7.493034866934    0.000000000000
 O    0.830227340055   -6.283483866934    0.000000000000
 O    2.233617340055   -8.070042866934    0.000000000000
 H    2.868153340055   -7.331479866934    0.000000000000
CS   -0.463639848121    3.430727768570    0.000000000000
