16

 N   -2.128156269140    0.048537023447    0.036816359830
 C   -0.896030536873   -0.581753256561    0.037771320138
 N   -0.625889600747   -1.902638731529    0.034307131191
 C    0.702239567716   -2.120832624279    0.049874559854
 H    1.016047850686   -3.167511356769    0.053254130545
 N    1.714589010757   -1.212851667138    0.063845830129
 C    1.402372266850    0.097969416111    0.059199426229
 N    2.409999221652    1.022468053416    0.017377589298
 H    3.341450759039    0.691937944664    0.239835523431
 H    2.177261715625    1.982438808455    0.242187834738
 C    0.036871425976    0.474663269978    0.050428338514
 N   -0.586657885215    1.713628970608    0.060306547532
 C   -1.886583372372    1.405549582247    0.051851694374
 H   -2.696636901159    2.132130383349    0.055899832237
 H   -3.031945946310   -0.411720100387    0.029213303897
LI   -0.583766875520    1.723056477783   -0.939644833372
