16

 N   -2.128199099990    0.048397353164    0.051630826717
 C   -0.896073367723   -0.581892926844    0.052585787025
 N   -0.625932431597   -1.902778401812    0.049121598078
 C    0.702196736866   -2.120972294562    0.064689026741
 H    1.016005019836   -3.167651027052    0.068068597432
 N    1.714546179907   -1.212991337421    0.078660297016
 C    1.402329436000    0.097829745828    0.074013893116
 N    2.409956390802    1.022328383133    0.032192056185
 H    3.341407928189    0.691798274381    0.254649990318
 H    2.177218884775    1.982299138172    0.257002301625
 C    0.036828595126    0.474523599695    0.065242805401
 N   -0.586700716065    1.713489300325    0.075121014419
 C   -1.886626203222    1.405409911964    0.066666161261
 H   -2.696679732009    2.131990713066    0.070714299124
 H   -3.031988777160   -0.411859770670    0.044027770784
LI   -0.582942403461    1.725745059652   -1.224815780756
