16

 N   -2.128213376940    0.048350796403    0.056568982346
 C   -0.896087644673   -0.581939483605    0.057523942654
 N   -0.625946708547   -1.902824958573    0.054059753707
 C    0.702182459916   -2.121018851323    0.069627182370
 H    1.015990742886   -3.167697583813    0.073006753061
 N    1.714531902957   -1.213037894182    0.083598452645
 C    1.402315159050    0.097783189067    0.078952048745
 N    2.409942113852    1.022281826372    0.037130211814
 H    3.341393651239    0.691751717620    0.259588145947
 H    2.177204607825    1.982252581411    0.261940457254
 C    0.036814318176    0.474477042934    0.070180961030
 N   -0.586714993015    1.713442743564    0.080059170048
 C   -1.886640480172    1.405363355203    0.071604316890
 H   -2.696694008959    2.131944156305    0.075652454753
 H   -3.032003054110   -0.411906327431    0.048965926413
LI   -0.582667579441    1.726641253609   -1.319872763217
