16

 N   -2.128227653890    0.048304239641    0.061507137975
 C   -0.896101921623   -0.581986040367    0.062462098283
 N   -0.625960985497   -1.902871515335    0.058997909336
 C    0.702168182966   -2.121065408085    0.074565337999
 H    1.015976465936   -3.167744140575    0.077944908690
 N    1.714517626007   -1.213084450944    0.088536608274
 C    1.402300882100    0.097736632305    0.083890204374
 N    2.409927836902    1.022235269610    0.042068367443
 H    3.341379374289    0.691705160858    0.264526301576
 H    2.177190330875    1.982206024649    0.266878612883
 C    0.036800041226    0.474430486172    0.075119116659
 N   -0.586729269965    1.713396186802    0.084997325677
 C   -1.886654757122    1.405316798441    0.076542472519
 H   -2.696708285909    2.131897599543    0.080590610382
 H   -3.032017331060   -0.411952884193    0.053904082042
LI   -0.582392755422    1.727537447565   -1.414929745679
