16

 N   -2.128256207790    0.048211126119    0.071383449233
 C   -0.896130475523   -0.582079153889    0.072338409541
 N   -0.625989539397   -1.902964628857    0.068874220594
 C    0.702139629066   -2.121158521607    0.084441649257
 H    1.015947912036   -3.167837254097    0.087821219948
 N    1.714489072107   -1.213177564466    0.098412919532
 C    1.402272328200    0.097643518783    0.093766515632
 N    2.409899283002    1.022142156088    0.051944678701
 H    3.341350820389    0.691612047336    0.274402612834
 H    2.177161776975    1.982112911127    0.276754924141
 C    0.036771487326    0.474337372650    0.084995427917
 N   -0.586757823865    1.713303073280    0.094873636935
 C   -1.886683311022    1.405223684919    0.086418783777
 H   -2.696736839809    2.131804486021    0.090466921640
 H   -3.032045884960   -0.412045997715    0.063780393300
LI   -0.581843107383    1.729329835478   -1.605043710601
