16

 N   -2.129441194634    0.044346914942    0.481250366446
 C   -0.897315462367   -0.585943365066    0.482205326754
 N   -0.627174526241   -1.906828840034    0.478741137807
 C    0.700954642222   -2.125022732784    0.494308566470
 H    1.014762925192   -3.171701465274    0.497688137161
 N    1.713304085263   -1.217041775643    0.508279836745
 C    1.401087341356    0.093779307606    0.503633432845
 N    2.408714296158    1.018277944911    0.461811595914
 H    3.340165833545    0.687747836159    0.684269530047
 H    2.175976790131    1.978248699950    0.686621841354
 C    0.035586500482    0.470473161473    0.494862345130
 N   -0.587942810709    1.709438862103    0.504740554148
 C   -1.887868297866    1.401359473742    0.496285700990
 H   -2.697921826653    2.127940274844    0.500333838853
 H   -3.033230871804   -0.415910208892    0.473647310513
LI   -0.559032713756    1.803713933854   -9.494773254890
