16

 N   -2.128299038640    0.048071455836    0.086197916120
 C   -0.896173306373   -0.582218824172    0.087152876428
 N   -0.626032370247   -1.903104299140    0.083688687481
 C    0.702096798216   -2.121298191890    0.099256116144
 H    1.015905081186   -3.167976924380    0.102635686835
 N    1.714446241257   -1.213317234749    0.113227386419
 C    1.402229497350    0.097503848500    0.108580982519
 N    2.409856452152    1.022002485805    0.066759145588
 H    3.341307989539    0.691472377053    0.289217079721
 H    2.177118946125    1.981973240844    0.291569391028
 C    0.036728656476    0.474197702367    0.099809894804
 N   -0.586800654715    1.713163402997    0.109688103822
 C   -1.886726141872    1.405084014636    0.101233250664
 H   -2.696779670659    2.131664815738    0.105281388527
 H   -3.032088715810   -0.412185667998    0.078594860187
LI   -0.581018635324    1.732018417347   -1.890214657985
