16

 N   -2.128313315589    0.048024899074    0.091136071749
 C   -0.896187583322   -0.582265380934    0.092091032057
 N   -0.626046647196   -1.903150855902    0.088626843110
 C    0.702082521267   -2.121344748652    0.104194271773
 H    1.015890804237   -3.168023481142    0.107573842464
 N    1.714431964308   -1.213363791511    0.118165542048
 C    1.402215220401    0.097457291738    0.113519138148
 N    2.409842175203    1.021955929043    0.071697301217
 H    3.341293712590    0.691425820291    0.294155235350
 H    2.177104669176    1.981926684082    0.296507546657
 C    0.036714379527    0.474151145605    0.104748050433
 N   -0.586814931664    1.713116846235    0.114626259451
 C   -1.886740418821    1.405037457874    0.106171406293
 H   -2.696793947608    2.131618258976    0.110219544156
 H   -3.032102992759   -0.412232224760    0.083533015816
LI   -0.580743811304    1.732914611303   -1.985271640447
