16

 N   -2.128384700339    0.047792115269    0.115826849895
 C   -0.896258968072   -0.582498164739    0.116781810203
 N   -0.626118031946   -1.903383639707    0.113317621256
 C    0.702011136517   -2.121577532457    0.128885049919
 H    1.015819419487   -3.168256264947    0.132264620610
 N    1.714360579558   -1.213596575316    0.142856320194
 C    1.402143835651    0.097224507933    0.138209916294
 N    2.409770790453    1.021723145238    0.096388079363
 H    3.341222327840    0.691193036486    0.318846013496
 H    2.177033284426    1.981693900277    0.321198324803
 C    0.036642994777    0.473918361800    0.129438828579
 N   -0.586886316414    1.712884062430    0.139317037597
 C   -1.886811803571    1.404804674069    0.130862184439
 H   -2.696865332358    2.131385475171    0.134910322302
 H   -3.032174377509   -0.412465008565    0.108223793962
LI   -0.579369691206    1.737395581085   -2.460556552753
