16

 N   -2.128398977289    0.047745558507    0.120765005524
 C   -0.896273245022   -0.582544721501    0.121719965832
 N   -0.626132308896   -1.903430196469    0.118255776885
 C    0.701996859567   -2.121624089219    0.133823205548
 H    1.015805142537   -3.168302821709    0.137202776239
 N    1.714346302608   -1.213643132078    0.147794475823
 C    1.402129558701    0.097177951171    0.143148071923
 N    2.409756513503    1.021676588476    0.101326234992
 H    3.341208050890    0.691146479724    0.323784169125
 H    2.177019007476    1.981647343515    0.326136480432
 C    0.036628717827    0.473871805038    0.134376984208
 N   -0.586900593364    1.712837505668    0.144255193226
 C   -1.886826080521    1.404758117307    0.135800340068
 H   -2.696879609308    2.131338918409    0.139848477931
 H   -3.032188654459   -0.412511565327    0.113161949591
LI   -0.579094867187    1.738291775041   -2.555613535214
