16

 N   -2.128413254239    0.047699001746    0.125703161153
 C   -0.896287521972   -0.582591278262    0.126658121461
 N   -0.626146585846   -1.903476753230    0.123193932514
 C    0.701982582617   -2.121670645980    0.138761361177
 H    1.015790865587   -3.168349378470    0.142140931868
 N    1.714332025658   -1.213689688839    0.152732631452
 C    1.402115281751    0.097131394410    0.148086227552
 N    2.409742236553    1.021630031715    0.106264390621
 H    3.341193773940    0.691099922963    0.328722324754
 H    2.177004730526    1.981600786754    0.331074636061
 C    0.036614440877    0.473825248277    0.139315139837
 N   -0.586914870314    1.712790948907    0.149193348855
 C   -1.886840357471    1.404711560546    0.140738495697
 H   -2.696893886258    2.131292361648    0.144786633560
 H   -3.032202931409   -0.412558122088    0.118100105220
LI   -0.578820043167    1.739187968997   -2.650670517676
