16

 N   -2.128441808139    0.047605888224    0.135579472411
 C   -0.896316075872   -0.582684391784    0.136534432719
 N   -0.626175139746   -1.903569866752    0.133070243772
 C    0.701954028717   -2.121763759502    0.148637672435
 H    1.015762311687   -3.168442491992    0.152017243126
 N    1.714303471758   -1.213782802361    0.162608942710
 C    1.402086727851    0.097038280888    0.157962538810
 N    2.409713682653    1.021536918193    0.116140701879
 H    3.341165220040    0.691006809441    0.338598636012
 H    2.176976176626    1.981507673232    0.340950947319
 C    0.036585886977    0.473732134755    0.149191451095
 N   -0.586943424214    1.712697835385    0.159069660113
 C   -1.886868911371    1.404618447024    0.150614806955
 H   -2.696922440158    2.131199248126    0.154662944818
 H   -3.032231485309   -0.412651235610    0.127976416478
LI   -0.578270395128    1.740980356910   -2.840784482598
