16

 N   -2.128456085089    0.047559331463    0.140517628040
 C   -0.896330352822   -0.582730948545    0.141472588348
 N   -0.626189416696   -1.903616423513    0.138008399401
 C    0.701939751767   -2.121810316263    0.153575828064
 H    1.015748034737   -3.168489048753    0.156955398755
 N    1.714289194808   -1.213829359122    0.167547098339
 C    1.402072450901    0.096991724127    0.162900694439
 N    2.409699405703    1.021490361432    0.121078857508
 H    3.341150943090    0.690960252680    0.343536791641
 H    2.176961899676    1.981461116471    0.345889102948
 C    0.036571610027    0.473685577994    0.154129606724
 N   -0.586957701164    1.712651278624    0.164007815742
 C   -1.886883188321    1.404571890263    0.155552962584
 H   -2.696936717108    2.131152691365    0.159601100447
 H   -3.032245762259   -0.412697792371    0.132914572107
LI   -0.577995571108    1.741876550866   -2.935841465060
