16

 N   -2.128484638989    0.047466217940    0.150393939298
 C   -0.896358906722   -0.582824062068    0.151348899606
 N   -0.626217970596   -1.903709537036    0.147884710659
 C    0.701911197867   -2.121903429786    0.163452139322
 H    1.015719480837   -3.168582162276    0.166831710013
 N    1.714260640908   -1.213922472645    0.177423409597
 C    1.402043897001    0.096898610604    0.172777005697
 N    2.409670851803    1.021397247909    0.130955168766
 H    3.341122389190    0.690867139157    0.353413102899
 H    2.176933345776    1.981368002948    0.355765414206
 C    0.036543056127    0.473592464471    0.164005917982
 N   -0.586986255064    1.712558165101    0.173884127000
 C   -1.886911742221    1.404478776740    0.165429273842
 H   -2.696965271008    2.131059577842    0.169477411705
 H   -3.032274316159   -0.412790905894    0.142790883365
LI   -0.577445923069    1.743668938779   -3.125955429982
