16

 N   -2.128498915939    0.047419661179    0.155332094927
 C   -0.896373183672   -0.582870618829    0.156287055235
 N   -0.626232247546   -1.903756093797    0.152822866288
 C    0.701896920917   -2.121949986547    0.168390294951
 H    1.015705203887   -3.168628719037    0.171769865642
 N    1.714246363958   -1.213969029406    0.182361565226
 C    1.402029620051    0.096852053843    0.177715161326
 N    2.409656574853    1.021350691148    0.135893324395
 H    3.341108112240    0.690820582396    0.358351258528
 H    2.176919068826    1.981321446187    0.360703569835
 C    0.036528779177    0.473545907710    0.168944073611
 N   -0.587000532014    1.712511608340    0.178822282629
 C   -1.886926019171    1.404432219979    0.170367429471
 H   -2.696979547958    2.131013021081    0.174415567334
 H   -3.032288593109   -0.412837462655    0.147729038994
LI   -0.577171099049    1.744565132735   -3.221012412444
