16

 N   -2.128513192889    0.047373104418    0.160270250556
 C   -0.896387460622   -0.582917175590    0.161225210864
 N   -0.626246524496   -1.903802650558    0.157761021917
 C    0.701882643967   -2.121996543308    0.173328450580
 H    1.015690926937   -3.168675275798    0.176708021271
 N    1.714232087008   -1.214015586167    0.187299720855
 C    1.402015343101    0.096805497082    0.182653316955
 N    2.409642297903    1.021304134387    0.140831480024
 H    3.341093835290    0.690774025635    0.363289414157
 H    2.176904791876    1.981274889426    0.365641725464
 C    0.036514502227    0.473499350949    0.173882229240
 N   -0.587014808964    1.712465051579    0.183760438258
 C   -1.886940296121    1.404385663218    0.175305585100
 H   -2.696993824908    2.130966464320    0.179353722963
 H   -3.032302870059   -0.412884019416    0.152667194623
LI   -0.576896275030    1.745461326692   -3.316069394905
