16

 N   -2.128527469838    0.047326547657    0.165208406186
 C   -0.896401737571   -0.582963732351    0.166163366494
 N   -0.626260801445   -1.903849207319    0.162699177547
 C    0.701868367018   -2.122043100069    0.178266606210
 H    1.015676649988   -3.168721832559    0.181646176901
 N    1.714217810059   -1.214062142928    0.192237876485
 C    1.402001066152    0.096758940321    0.187591472585
 N    2.409628020954    1.021257577626    0.145769635654
 H    3.341079558341    0.690727468874    0.368227569787
 H    2.176890514927    1.981228332665    0.370579881094
 C    0.036500225278    0.473452794188    0.178820384870
 N   -0.587029085913    1.712418494818    0.188698593888
 C   -1.886954573070    1.404339106457    0.180243740730
 H   -2.697008101857    2.130919907559    0.184291878593
 H   -3.032317147008   -0.412930576177    0.157605350253
LI   -0.576621451010    1.746357520648   -3.411126377366
