16

 N   -2.128556023738    0.047233434134    0.175084717444
 C   -0.896430291471   -0.583056845874    0.176039677752
 N   -0.626289355345   -1.903942320842    0.172575488805
 C    0.701839813118   -2.122136213592    0.188142917468
 H    1.015648096088   -3.168814946082    0.191522488159
 N    1.714189256159   -1.214155256451    0.202114187743
 C    1.401972512252    0.096665826798    0.197467783843
 N    2.409599467054    1.021164464103    0.155645946912
 H    3.341051004441    0.690634355351    0.378103881045
 H    2.176861961027    1.981135219142    0.380456192352
 C    0.036471671378    0.473359680665    0.188696696128
 N   -0.587057639813    1.712325381295    0.198574905146
 C   -1.886983126970    1.404245992934    0.190120051988
 H   -2.697036655757    2.130826794036    0.194168189851
 H   -3.032345700908   -0.413023689700    0.167481661511
LI   -0.576071802971    1.748149908561   -3.601240342289
