16

 N   -2.128570300688    0.047186877373    0.180022873073
 C   -0.896444568421   -0.583103402635    0.180977833381
 N   -0.626303632295   -1.903988877603    0.177513644434
 C    0.701825536168   -2.122182770353    0.193081073097
 H    1.015633819138   -3.168861502843    0.196460643788
 N    1.714174979209   -1.214201813212    0.207052343372
 C    1.401958235302    0.096619270037    0.202405939472
 N    2.409585190104    1.021117907342    0.160584102541
 H    3.341036727491    0.690587798590    0.383042036674
 H    2.176847684077    1.981088662381    0.385394347981
 C    0.036457394428    0.473313123904    0.193634851757
 N   -0.587071916763    1.712278824534    0.203513060775
 C   -1.886997403920    1.404199436173    0.195058207617
 H   -2.697050932707    2.130780237275    0.199106345480
 H   -3.032359977858   -0.413070246461    0.172419817140
LI   -0.575796978951    1.749046102517   -3.696297324750
