16

 N   -2.128598854588    0.047093763851    0.189899184331
 C   -0.896473122321   -0.583196516157    0.190854144639
 N   -0.626332186195   -1.904081991125    0.187389955692
 C    0.701796982268   -2.122275883875    0.202957384355
 H    1.015605265238   -3.168954616365    0.206336955046
 N    1.714146425309   -1.214294926734    0.216928654630
 C    1.401929681402    0.096526156515    0.212282250730
 N    2.409556636204    1.021024793820    0.170460413799
 H    3.341008173591    0.690494685068    0.392918347932
 H    2.176819130177    1.980995548859    0.395270659239
 C    0.036428840528    0.473220010382    0.203511163015
 N   -0.587100470663    1.712185711012    0.213389372033
 C   -1.887025957820    1.404106322651    0.204934518875
 H   -2.697079486607    2.130687123753    0.208982656738
 H   -3.032388531758   -0.413163359983    0.182296128398
LI   -0.575247330912    1.750838490430   -3.886411289673
