16

 N   -2.128641685438    0.046954093567    0.204713651218
 C   -0.896515953171   -0.583336186441    0.205668611526
 N   -0.626375017045   -1.904221661409    0.202204422579
 C    0.701754151418   -2.122415554159    0.217771851242
 H    1.015562434388   -3.169094286649    0.221151421933
 N    1.714103594459   -1.214434597018    0.231743121517
 C    1.401886850552    0.096386486231    0.227096717617
 N    2.409513805354    1.020885123536    0.185274880686
 H    3.340965342741    0.690355014784    0.407732814819
 H    2.176776299327    1.980855878575    0.410085126126
 C    0.036386009678    0.473080340098    0.218325629902
 N   -0.587143301513    1.712046040728    0.228203838920
 C   -1.887068788670    1.403966652367    0.219748985762
 H   -2.697122317457    2.130547453469    0.223797123625
 H   -3.032431362608   -0.413303030267    0.197110595285
LI   -0.574422858854    1.753527072299   -4.171582237057
