16

 N   -2.128755901037    0.046581639478    0.244218896251
 C   -0.896630168770   -0.583708640530    0.245173856559
 N   -0.626489232644   -1.904594115498    0.241709667612
 C    0.701639935819   -2.122788008248    0.257277096275
 H    1.015448218789   -3.169466740738    0.260656666966
 N    1.713989378860   -1.214807051107    0.271248366550
 C    1.401772634953    0.096014032142    0.266601962650
 N    2.409399589755    1.020512669447    0.224780125719
 H    3.340851127142    0.689982560695    0.447238059852
 H    2.176662083728    1.980483424486    0.449590371159
 C    0.036271794079    0.472707886009    0.257830874935
 N   -0.587257517112    1.711673586639    0.267709083953
 C   -1.887183004269    1.403594198278    0.259254230795
 H   -2.697236533056    2.130174999380    0.263302368658
 H   -3.032545578207   -0.413675484356    0.236615840318
LI   -0.572224266697    1.760696623949   -4.932038096747
