16

 N   -2.128813008837    0.046395412433    0.263971518767
 C   -0.896687276570   -0.583894867575    0.264926479075
 N   -0.626546340444   -1.904780342543    0.261462290128
 C    0.701582828019   -2.122974235293    0.277029718791
 H    1.015391110989   -3.169652967783    0.280409289482
 N    1.713932271060   -1.214993278152    0.291000989066
 C    1.401715527153    0.095827805097    0.286354585166
 N    2.409342481955    1.020326442402    0.244532748235
 H    3.340794019342    0.689796333650    0.466990682368
 H    2.176604975928    1.980297197441    0.469342993675
 C    0.036214686279    0.472521658964    0.277583497451
 N   -0.587314624912    1.711487359594    0.287461706469
 C   -1.887240112069    1.403407971233    0.279006853311
 H   -2.697293640856    2.129988772335    0.283054991174
 H   -3.032602686007   -0.413861711401    0.256368462834
LI   -0.571124970618    1.764281399775   -5.312266026592
