16

 N   -2.128841562737    0.046302298911    0.273847830025
 C   -0.896715830470   -0.583987981097    0.274802790333
 N   -0.626574894344   -1.904873456065    0.271338601386
 C    0.701554274119   -2.123067348815    0.286906030049
 H    1.015362557089   -3.169746081305    0.290285600740
 N    1.713903717160   -1.215086391674    0.300877300324
 C    1.401686973253    0.095734691575    0.296230896424
 N    2.409313928055    1.020233328880    0.254409059493
 H    3.340765465442    0.689703220128    0.476866993626
 H    2.176576422028    1.980204083919    0.479219304933
 C    0.036186132379    0.472428545442    0.287459808709
 N   -0.587343178812    1.711394246072    0.297338017727
 C   -1.887268665969    1.403314857711    0.288883164569
 H   -2.697322194756    2.129895658813    0.292931302432
 H   -3.032631239907   -0.413954824923    0.266244774092
LI   -0.570575322579    1.766073787688   -5.502379991515
