16

 N   -2.128941501387    0.045976401583    0.308414919429
 C   -0.896815769120   -0.584313878425    0.309369879737
 N   -0.626674832994   -1.905199353393    0.305905690790
 C    0.701454335469   -2.123393246143    0.321473119453
 H    1.015262618439   -3.170071978633    0.324852690144
 N    1.713803778510   -1.215412289002    0.335444389728
 C    1.401587034603    0.095408794247    0.330797985828
 N    2.409213989405    1.019907431552    0.288976148897
 H    3.340665526792    0.689377322800    0.511434083030
 H    2.176476483378    1.979878186591    0.513786394337
 C    0.036086193729    0.472102648114    0.322026898113
 N   -0.587443117462    1.711068348744    0.331905107131
 C   -1.887368604619    1.402988960383    0.323450253973
 H   -2.697422133406    2.129569761485    0.327498391836
 H   -3.032731178557   -0.414280722251    0.300811863496
LI   -0.568651554442    1.772347145382   -6.167778868744
