16

 N   -2.129055716986    0.045603947493    0.347920164461
 C   -0.896929984719   -0.584686332515    0.348875124769
 N   -0.626789048593   -1.905571807483    0.345410935822
 C    0.701340119870   -2.123765700233    0.360978364485
 H    1.015148402840   -3.170444432723    0.364357935176
 N    1.713689562911   -1.215784743092    0.374949634760
 C    1.401472819004    0.095036340157    0.370303230860
 N    2.409099773806    1.019534977462    0.328481393929
 H    3.340551311193    0.689004868710    0.550939328062
 H    2.176362267779    1.979505732501    0.553291639369
 C    0.035971978130    0.471730194024    0.361532143145
 N   -0.587557333061    1.710695894654    0.371410352163
 C   -1.887482820218    1.402616506293    0.362955499005
 H   -2.697536349005    2.129197307395    0.367003636868
 H   -3.032845394156   -0.414653176341    0.340317108528
LI   -0.566452962285    1.779516697033   -6.928234728434
