16

 N   -2.129112824786    0.045417720449    0.367672786978
 C   -0.896987092519   -0.584872559559    0.368627747286
 N   -0.626846156393   -1.905758034527    0.365163558339
 C    0.701283012070   -2.123951927277    0.380730987002
 H    1.015091295040   -3.170630659767    0.384110557693
 N    1.713632455111   -1.215970970136    0.394702257277
 C    1.401415711204    0.094850113113    0.390055853377
 N    2.409042666006    1.019348750418    0.348234016446
 H    3.340494203393    0.688818641666    0.570691950579
 H    2.176305159979    1.979319505457    0.573044261886
 C    0.035914870330    0.471543966980    0.381284765662
 N   -0.587614440861    1.710509667610    0.391162974680
 C   -1.887539928018    1.402430279249    0.382708121522
 H   -2.697593456805    2.129011080351    0.386756259385
 H   -3.032902501956   -0.414839403385    0.360069731045
LI   -0.565353666207    1.783101472858   -7.308462658280
