16

 N   -2.129127101736    0.045371163688    0.372610942607
 C   -0.897001369469   -0.584919116320    0.373565902915
 N   -0.626860433343   -1.905804591288    0.370101713968
 C    0.701268735120   -2.123998484038    0.385669142631
 H    1.015077018090   -3.170677216528    0.389048713322
 N    1.713618178161   -1.216017526897    0.399640412906
 C    1.401401434254    0.094803556352    0.394994009006
 N    2.409028389056    1.019302193657    0.353172172075
 H    3.340479926443    0.688772084905    0.575630106208
 H    2.176290883029    1.979272948696    0.577982417515
 C    0.035900593380    0.471497410219    0.386222921291
 N   -0.587628717811    1.710463110849    0.396101130309
 C   -1.887554204968    1.402383722488    0.387646277151
 H   -2.697607733755    2.128964523590    0.391694415014
 H   -3.032916778906   -0.414885960146    0.365007886674
LI   -0.565078842187    1.783997666814   -7.403519640741
