16

 N   -2.129155655636    0.045278050165    0.382487253865
 C   -0.897029923369   -0.585012229843    0.383442214173
 N   -0.626888987243   -1.905897704811    0.379978025226
 C    0.701240181220   -2.124091597561    0.395545453889
 H    1.015048464190   -3.170770330051    0.398925024580
 N    1.713589624261   -1.216110640420    0.409516724164
 C    1.401372880354    0.094710442829    0.404870320264
 N    2.408999835156    1.019209080134    0.363048483333
 H    3.340451372543    0.688678971382    0.585506417466
 H    2.176262329129    1.979179835173    0.587858728773
 C    0.035872039480    0.471404296696    0.396099232549
 N   -0.587657271711    1.710369997326    0.405977441567
 C   -1.887582758868    1.402290608965    0.397522588409
 H   -2.697636287655    2.128871410067    0.401570726272
 H   -3.032945332806   -0.414979073669    0.374884197932
LI   -0.564529194148    1.785790054727   -7.593633605664
