16

 N   -2.129212763435    0.045091823121    0.402239876381
 C   -0.897087031168   -0.585198456887    0.403194836689
 N   -0.626946095042   -1.906083931855    0.399730647742
 C    0.701183073421   -2.124277824605    0.415298076405
 H    1.014991356391   -3.170956557095    0.418677647096
 N    1.713532516462   -1.216296867464    0.429269346680
 C    1.401315772555    0.094524215785    0.424622942780
 N    2.408942727357    1.019022853090    0.382801105849
 H    3.340394264744    0.688492744338    0.605259039982
 H    2.176205221330    1.978993608129    0.607611351289
 C    0.035814931681    0.471218069652    0.415851855065
 N   -0.587714379510    1.710183770282    0.425730064083
 C   -1.887639866667    1.402104381921    0.417275210925
 H   -2.697693395454    2.128685183023    0.421323348788
 H   -3.033002440605   -0.415165300713    0.394636820448
LI   -0.563429898070    1.789374830552   -7.973861535509
