16

 N   -2.129298425135    0.044812482553    0.431868810156
 C   -0.897172692868   -0.585477797455    0.432823770464
 N   -0.627031756742   -1.906363272423    0.429359581517
 C    0.701097411721   -2.124557165173    0.444927010180
 H    1.014905694691   -3.171235897663    0.448306580871
 N    1.713446854762   -1.216576208032    0.458898280455
 C    1.401230110855    0.094244875217    0.454251876555
 N    2.408857065657    1.018743512522    0.412430039624
 H    3.340308603044    0.688213403770    0.634887973757
 H    2.176119559630    1.978714267561    0.637240285064
 C    0.035729269981    0.470938729084    0.445480788840
 N   -0.587800041210    1.709904429714    0.455358997858
 C   -1.887725528367    1.401825041353    0.446904144700
 H   -2.697779057154    2.128405842455    0.450952282563
 H   -3.033088102305   -0.415444641281    0.424265754223
LI   -0.561780953952    1.794751994290   -8.544203430277
