16

 N   -2.129312702085    0.044765925792    0.436806965785
 C   -0.897186969818   -0.585524354216    0.437761926093
 N   -0.627046033692   -1.906409829184    0.434297737146
 C    0.701083134771   -2.124603721934    0.449865165809
 H    1.014891417741   -3.171282454424    0.453244736500
 N    1.713432577812   -1.216622764793    0.463836436084
 C    1.401215833905    0.094198318456    0.459190032184
 N    2.408842788707    1.018696955761    0.417368195253
 H    3.340294326094    0.688166847009    0.639826129386
 H    2.176105282680    1.978667710800    0.642178440693
 C    0.035714993031    0.470892172323    0.450418944469
 N   -0.587814318160    1.709857872953    0.460297153487
 C   -1.887739805317    1.401778484592    0.451842300329
 H   -2.697793334104    2.128359285694    0.455890438192
 H   -3.033102379255   -0.415491198042    0.429203909852
LI   -0.561506129932    1.795648188247   -8.639260412738
