16

 N   -2.129355532935    0.044626255509    0.451621432672
 C   -0.897229800668   -0.585664024499    0.452576392980
 N   -0.627088864542   -1.906549499467    0.449112204033
 C    0.701040303921   -2.124743392217    0.464679632696
 H    1.014848586891   -3.171422124707    0.468059203387
 N    1.713389746962   -1.216762435076    0.478650902971
 C    1.401173003055    0.094058648173    0.474004499071
 N    2.408799957857    1.018557285478    0.432182662140
 H    3.340251495244    0.688027176726    0.654640596273
 H    2.176062451830    1.978528040517    0.656992907580
 C    0.035672162181    0.470752502040    0.465233411356
 N   -0.587857149010    1.709718202670    0.475111620374
 C   -1.887782636167    1.401638814309    0.466656767216
 H   -2.697836164954    2.128219615411    0.470704905079
 H   -3.033145210105   -0.415630868325    0.444018376739
LI   -0.560681657874    1.798336770116   -8.924431360122
