16

 N   -2.129369809885    0.044579698748    0.456559588301
 C   -0.897244077618   -0.585710581260    0.457514548609
 N   -0.627103141492   -1.906596056228    0.454050359662
 C    0.701026026971   -2.124789948978    0.469617788325
 H    1.014834309941   -3.171468681468    0.472997359016
 N    1.713375470012   -1.216808991837    0.483589058600
 C    1.401158726105    0.094012091412    0.478942654700
 N    2.408785680907    1.018510728717    0.437120817769
 H    3.340237218294    0.687980619965    0.659578751902
 H    2.176048174880    1.978481483756    0.661931063209
 C    0.035657885231    0.470705945279    0.470171566985
 N   -0.587871425960    1.709671645909    0.480049776003
 C   -1.887796913117    1.401592257548    0.471594922845
 H   -2.697850441904    2.128173058650    0.475643060708
 H   -3.033159487055   -0.415677425086    0.448956532368
LI   -0.560406833854    1.799232964072   -9.019488342583
