16

 N   -2.129398363784    0.044486585225    0.466435899559
 C   -0.897272631517   -0.585803694783    0.467390859867
 N   -0.627131695391   -1.906689169751    0.463926670920
 C    0.700997473072   -2.124883062501    0.479494099583
 H    1.014805756042   -3.171561794991    0.482873670274
 N    1.713346916113   -1.216902105360    0.493465369858
 C    1.401130172206    0.093918977889    0.488818965958
 N    2.408757127008    1.018417615194    0.446997129027
 H    3.340208664395    0.687887506442    0.669455063160
 H    2.176019620981    1.978388370233    0.671807374467
 C    0.035629331332    0.470612831756    0.480047878243
 N   -0.587899979859    1.709578532386    0.489926087261
 C   -1.887825467016    1.401499144025    0.481471234103
 H   -2.697878995803    2.128079945127    0.485519371966
 H   -3.033188040954   -0.415770538609    0.458832843626
LI   -0.559857185815    1.801025351985   -9.209602307506
