16

 N    1.193965179107    1.476027772441    0.029103627210
 C    2.564580591516    1.675502450282    0.025471992834
 H    2.886364887854    2.719247381158    0.046890808527
 C    0.594249909678    0.222912612888    0.004573636554
 O   -0.623524121854    0.055969906821    0.005569717328
 N    1.519555925289   -0.813864996954   -0.023082900435
 H    1.124982217426   -1.752379306803   -0.043591773833
 C    2.925286303684   -0.727826284636   -0.031530951226
 O    3.613606976112   -1.751443506438   -0.059638889779
 C    3.455055484749    0.640562584098   -0.002924582092
 C    4.947345378355    0.824420909560   -0.007755391918
 H    5.208893007435    1.892848786428    0.014898776229
 H    5.387489691945    0.366100690138   -0.906863643364
 H    5.398350585064    0.325934424254    0.864181444995
 H    0.551658955778    2.260280810615    0.048999045500
CS   -2.109624315587   -0.147757206260    0.006785276038
