16

 N    1.295664119188    1.489969518464    0.029020442352
 C    2.666279531597    1.689444196305    0.025388807976
 H    2.988063827935    2.733189127181    0.046807623669
 C    0.695948849759    0.236854358911    0.004490451696
 O   -0.521825181773    0.069911652844    0.005486532470
 N    1.621254865370   -0.799923250931   -0.023166085293
 H    1.226681157507   -1.738437560780   -0.043674958691
 C    3.026985243765   -0.713884538613   -0.031614136084
 O    3.715305916193   -1.737501760415   -0.059722074637
 C    3.556754424830    0.654504330121   -0.003007766950
 C    5.049044318436    0.838362655583   -0.007838576776
 H    5.310591947516    1.906790532451    0.014815591371
 H    5.489188632026    0.380042436161   -0.906946828222
 H    5.500049525145    0.339876170277    0.864098260137
 H    0.653357895859    2.274222556638    0.048915860642
CS   -2.206072068003   -0.160979075314    0.006864165675
