16

 N    1.346513589229    1.496940391476    0.028978849924
 C    2.717129001638    1.696415069317    0.025347215548
 H    3.038913297976    2.740160000193    0.046766031241
 C    0.746798319800    0.243825231923    0.004448859268
 O   -0.470975711732    0.076882525856    0.005444940042
 N    1.672104335411   -0.792952377919   -0.023207677721
 H    1.277530627548   -1.731466687768   -0.043716551119
 C    3.077834713806   -0.706913665601   -0.031655728512
 O    3.766155386234   -1.730530887403   -0.059763667065
 C    3.607603894871    0.661475203133   -0.003049359378
 C    5.099893788477    0.845333528595   -0.007880169204
 H    5.361441417557    1.913761405463    0.014773998943
 H    5.540038102067    0.387013309173   -0.906988420650
 H    5.550898995186    0.346847043289    0.864056667709
 H    0.704207365900    2.281193429650    0.048874268214
CS   -2.254295944211   -0.167590009841    0.006903610494
