16

 N    1.397363059270    1.503911264487    0.028937257495
 C    2.767978471679    1.703385942328    0.025305623119
 H    3.089762768017    2.747130873204    0.046724438812
 C    0.797647789841    0.250796104934    0.004407266839
 O   -0.420126241691    0.083853398867    0.005403347613
 N    1.722953805452   -0.785981504908   -0.023249270150
 H    1.328380097589   -1.724495814757   -0.043758143548
 C    3.128684183847   -0.699942792590   -0.031697320941
 O    3.817004856275   -1.723560014392   -0.059805259494
 C    3.658453364912    0.668446076144   -0.003090951807
 C    5.150743258518    0.852304401606   -0.007921761633
 H    5.412290887598    1.920732278474    0.014732406514
 H    5.590887572108    0.393984182184   -0.907030013079
 H    5.601748465227    0.353817916300    0.864015075280
 H    0.755056835941    2.288164302661    0.048832675785
CS   -2.302519820420   -0.174200944368    0.006943055313
