16

 N    1.651610409473    1.538765629545    0.028729295352
 C    3.022225821882    1.738240307386    0.025097660976
 H    3.344010118220    2.781985238262    0.046516476669
 C    1.051895140044    0.285650469992    0.004199304696
 O   -0.165878891488    0.118707763925    0.005195385470
 N    1.977201155655   -0.751127139850   -0.023457232293
 H    1.582627447792   -1.689641449699   -0.043966105691
 C    3.382931534050   -0.665088427532   -0.031905283084
 O    4.071252206478   -1.688705649334   -0.060013221637
 C    3.912700715115    0.703300441202   -0.003298913950
 C    5.404990608721    0.887158766664   -0.008129723776
 H    5.666538237801    1.955586643532    0.014524444371
 H    5.845134922311    0.428838547242   -0.907237975222
 H    5.855995815430    0.388672281358    0.863807113137
 H    1.009304186144    2.323018667719    0.048624713642
CS   -2.543639201461   -0.207255617004    0.007140279407
