16

 N    1.753309349554    1.552707375569    0.028646110495
 C    3.123924761963    1.752182053410    0.025014476119
 H    3.445709058301    2.795926984286    0.046433291812
 C    1.153594080125    0.299592216016    0.004116119839
 O   -0.064179951407    0.132649509949    0.005112200613
 N    2.078900095736   -0.737185393826   -0.023540417150
 H    1.684326387873   -1.675699703675   -0.044049290548
 C    3.484630474131   -0.651146681508   -0.031988467941
 O    4.172951146559   -1.674763903310   -0.060096406494
 C    4.014399655196    0.717242187226   -0.003382098807
 C    5.506689548802    0.901100512688   -0.008212908633
 H    5.768237177882    1.969528389556    0.014441259514
 H    5.946833862392    0.442780293266   -0.907321160079
 H    5.957694755511    0.402614027382    0.863723928280
 H    1.111003126225    2.336960413743    0.048541528785
CS   -2.640086953877   -0.220477486058    0.007219169044
