16

 N    1.804158819595    1.559678248580    0.028604518066
 C    3.174774232004    1.759152926421    0.024972883690
 H    3.496558528342    2.802897857297    0.046391699383
 C    1.204443550166    0.306563089027    0.004074527410
 O   -0.013330481366    0.139620382960    0.005070608184
 N    2.129749565777   -0.730214520815   -0.023582009579
 H    1.735175857914   -1.668728830664   -0.044090882977
 C    3.535479944172   -0.644175808497   -0.032030060370
 O    4.223800616600   -1.667793030299   -0.060137998923
 C    4.065249125237    0.724213060237   -0.003423691236
 C    5.557539018843    0.908071385699   -0.008254501062
 H    5.819086647923    1.976499262567    0.014399667085
 H    5.997683332433    0.449751166277   -0.907362752508
 H    6.008544225552    0.409584900393    0.863682335851
 H    1.161852596266    2.343931286754    0.048499936356
CS   -2.688310830085   -0.227088420585    0.007258613863
