16

 N    1.855008289635    1.566649121592    0.028562925638
 C    3.225623702044    1.766123799433    0.024931291262
 H    3.547407998382    2.809868730309    0.046350106955
 C    1.255293020206    0.313533962039    0.004032934982
 O    0.037518988674    0.146591255972    0.005029015756
 N    2.180599035817   -0.723243647803   -0.023623602007
 H    1.786025327954   -1.661757957652   -0.044132475405
 C    3.586329414212   -0.637204935485   -0.032071652798
 O    4.274650086640   -1.660822157287   -0.060179591351
 C    4.116098595277    0.731183933249   -0.003465283664
 C    5.608388488883    0.915042258711   -0.008296093490
 H    5.869936117963    1.983470135579    0.014358074657
 H    6.048532802473    0.456722039289   -0.907404344936
 H    6.059393695592    0.416555773405    0.863640743423
 H    1.212702066306    2.350902159766    0.048458343928
CS   -2.736534706294   -0.233699355112    0.007298058682
