16

 N    2.007556699757    1.587561740627    0.028438148352
 C    3.378172112166    1.787036418468    0.024806513976
 H    3.699956408504    2.830781349344    0.046225329669
 C    1.407841430328    0.334446581074    0.003908157696
 O    0.190067398796    0.167503875007    0.004904238470
 N    2.333147445939   -0.702331028768   -0.023748379293
 H    1.938573738076   -1.640845338617   -0.044257252691
 C    3.738877824334   -0.616292316450   -0.032196430084
 O    4.427198496762   -1.639909538252   -0.060304368637
 C    4.268647005399    0.752096552284   -0.003590060950
 C    5.760936899005    0.935954877746   -0.008420870776
 H    6.022484528085    2.004382754614    0.014233297371
 H    6.201081212595    0.477634658324   -0.907529122222
 H    6.211942105714    0.437468392440    0.863515966137
 H    1.365250476428    2.371814778801    0.048333566642
CS   -2.881206334918   -0.253532158693    0.007416393138
