16

 N    2.058406169798    1.594532613638    0.028396555923
 C    3.429021582207    1.794007291479    0.024764921547
 H    3.750805878545    2.837752222355    0.046183737240
 C    1.458690900369    0.341417454085    0.003866565267
 O    0.240916868837    0.174474748018    0.004862646041
 N    2.383996915980   -0.695360155757   -0.023789971722
 H    1.989423208117   -1.633874465606   -0.044298845120
 C    3.789727294375   -0.609321443439   -0.032238022513
 O    4.478047966803   -1.632938665241   -0.060345961066
 C    4.319496475440    0.759067425295   -0.003631653379
 C    5.811786369046    0.942925750757   -0.008462463205
 H    6.073333998126    2.011353627625    0.014191704942
 H    6.251930682636    0.484605531335   -0.907570714651
 H    6.262791575755    0.444439265451    0.863474373708
 H    1.416099946469    2.378785651812    0.048291974213
CS   -2.929430211127   -0.260143093220    0.007455837956
