16

 N    2.210954579920    1.615445232673    0.028271778637
 C    3.581569992329    1.814919910514    0.024640144261
 H    3.903354288667    2.858664841390    0.046058959954
 C    1.611239310491    0.362330073120    0.003741787981
 O    0.393465278959    0.195387367053    0.004737868755
 N    2.536545326102   -0.674447536722   -0.023914749008
 H    2.141971618239   -1.612961846571   -0.044423622406
 C    3.942275704497   -0.588408824404   -0.032362799799
 O    4.630596376925   -1.612026046206   -0.060470738352
 C    4.472044885562    0.779980044330   -0.003756430665
 C    5.964334779168    0.963838369792   -0.008587240491
 H    6.225882408248    2.032266246660    0.014066927656
 H    6.404479092758    0.505518150370   -0.907695491937
 H    6.415339985877    0.465351884486    0.863349596422
 H    1.568648356591    2.399698270847    0.048167196927
CS   -3.074101839751   -0.279975896801    0.007574172413
