16

 N    2.516051400164    1.657270470743    0.028022224066
 C    3.886666812573    1.856745148584    0.024390589690
 H    4.208451108911    2.900490079460    0.045809405383
 C    1.916336130735    0.404155311190    0.003492233410
 O    0.698562099203    0.237212605123    0.004488314184
 N    2.841642146346   -0.632622298652   -0.024164303579
 H    2.447068438483   -1.571136608501   -0.044673176977
 C    4.247372524741   -0.546583586334   -0.032612354370
 O    4.935693197169   -1.570200808136   -0.060720292923
 C    4.777141705806    0.821805282400   -0.004005985236
 C    6.269431599412    1.005663607862   -0.008836795062
 H    6.530979228492    2.074091484730    0.013817373085
 H    6.709575913002    0.547343388440   -0.907945046508
 H    6.720436806121    0.507177122556    0.863100041851
 H    1.873745176835    2.441523508917    0.047917642356
CS   -3.363445097001   -0.319641503964    0.007810841325
