16

 N    2.566900870204    1.664241343754    0.027980631637
 C    3.937516282613    1.863716021595    0.024348997261
 H    4.259300578951    2.907460952471    0.045767812954
 C    1.967185600775    0.411126184201    0.003450640981
 O    0.749411569243    0.244183478134    0.004446721755
 N    2.892491616386   -0.625651425641   -0.024205896008
 H    2.497917908523   -1.564165735490   -0.044714769406
 C    4.298221994781   -0.539612713323   -0.032653946799
 O    4.986542667209   -1.563229935125   -0.060761885352
 C    4.827991175846    0.828776155411   -0.004047577665
 C    6.320281069452    1.012634480873   -0.008878387491
 H    6.581828698532    2.081062357741    0.013775780656
 H    6.760425383042    0.554314261451   -0.907986638937
 H    6.771286276161    0.514147995567    0.863058449422
 H    1.924594646875    2.448494381928    0.047876049927
CS   -3.411668973209   -0.326252438491    0.007850286144
