16

 N    2.922847160489    1.713037454836    0.027689484637
 C    4.293462572898    1.912512132677    0.024057850261
 H    4.615246869236    2.956257063553    0.045476665954
 C    2.323131891060    0.459922295283    0.003159493981
 O    1.105357859528    0.292979589216    0.004155574755
 N    3.248437906671   -0.576855314559   -0.024497043008
 H    2.853864198808   -1.515369624408   -0.045005916406
 C    4.654168285066   -0.490816602241   -0.032945093799
 O    5.342488957494   -1.514433824043   -0.061053032352
 C    5.183937466131    0.877572266493   -0.004338724665
 C    6.676227359737    1.061430591955   -0.009169534491
 H    6.937774988817    2.129858468823    0.013484633656
 H    7.116371673327    0.603110372533   -0.908277785937
 H    7.127232566446    0.562944106649    0.862767302422
 H    2.280540937160    2.497290493010    0.047584902927
CS   -3.749236106666   -0.372528980181    0.008126399875
