16

 N    2.973696630529    1.720008327847    0.027647892208
 C    4.344312042938    1.919483005688    0.024016257832
 H    4.666096339276    2.963227936564    0.045435073525
 C    2.373981361100    0.466893168294    0.003117901552
 O    1.156207329568    0.299950462227    0.004113982326
 N    3.299287376711   -0.569884441548   -0.024538635437
 H    2.904713668848   -1.508398751397   -0.045047508835
 C    4.705017755106   -0.483845729230   -0.032986686228
 O    5.393338427534   -1.507462951032   -0.061094624781
 C    5.234786936171    0.884543139504   -0.004380317094
 C    6.727076829777    1.068401464966   -0.009211126920
 H    6.988624458857    2.136829341834    0.013443041227
 H    7.167221143367    0.610081245544   -0.908319378366
 H    7.178082036486    0.569914979660    0.862725709993
 H    2.331390407200    2.504261366021    0.047543310498
CS   -3.797459982875   -0.379139914708    0.008165844694
