16

 N    3.075395570611    1.733950073871    0.027564707351
 C    4.446010983020    1.933424751712    0.023933072975
 H    4.767795279358    2.977169682588    0.045351888668
 C    2.475680301182    0.480834914318    0.003034716695
 O    1.257906269650    0.313892208251    0.004030797469
 N    3.400986316793   -0.555942695524   -0.024621820294
 H    3.006412608930   -1.494457005373   -0.045130693692
 C    4.806716695188   -0.469903983206   -0.033069871085
 O    5.495037367616   -1.493521205008   -0.061177809638
 C    5.336485876253    0.898484885528   -0.004463501951
 C    6.828775769859    1.082343210990   -0.009294311777
 H    7.090323398939    2.150771087858    0.013359856370
 H    7.268920083449    0.624022991568   -0.908402563223
 H    7.279780976568    0.583856725684    0.862642525136
 H    2.433089347282    2.518203112045    0.047460125641
CS   -3.893907735291   -0.392361783762    0.008244734331
