16

 N    3.177094510692    1.747891819894    0.027481522494
 C    4.547709923101    1.947366497735    0.023849888118
 H    4.869494219439    2.991111428611    0.045268703811
 C    2.577379241263    0.494776660341    0.002951531838
 O    1.359605209731    0.327833954274    0.003947612612
 N    3.502685256874   -0.542000949501   -0.024705005151
 H    3.108111549011   -1.480515259350   -0.045213878549
 C    4.908415635269   -0.455962237183   -0.033153055942
 O    5.596736307697   -1.479579458985   -0.061260994495
 C    5.438184816334    0.912426631551   -0.004546686808
 C    6.930474709940    1.096284957013   -0.009377496634
 H    7.192022339020    2.164712833881    0.013276671513
 H    7.370619023530    0.637964737591   -0.908485748080
 H    7.381479916649    0.597798471707    0.862559340279
 H    2.534788287363    2.532144858068    0.047376940784
CS   -3.990355487707   -0.405583652816    0.008323623969
