16

 N    3.329642920814    1.768804438929    0.027356745208
 C    4.700258333223    1.968279116770    0.023725110832
 H    5.022042629561    3.012024047646    0.045143926525
 C    2.729927651385    0.515689279376    0.002826754552
 O    1.512153619853    0.348746573309    0.003822835326
 N    3.655233666996   -0.521088330466   -0.024829782437
 H    3.260659959133   -1.459602640315   -0.045338655835
 C    5.060964045391   -0.435049618148   -0.033277833228
 O    5.749284717819   -1.458666839950   -0.061385771781
 C    5.590733226456    0.933339250586   -0.004671464094
 C    7.083023120062    1.117197576048   -0.009502273920
 H    7.344570749142    2.185625452916    0.013151894227
 H    7.523167433652    0.658877356626   -0.908610525366
 H    7.534028326771    0.618711090742    0.862434562993
 H    2.687336697485    2.553057477103    0.047252163498
CS   -4.135027116332   -0.425416456397    0.008441958425
