16

 N    3.380492390854    1.775775311940    0.027315152779
 C    4.751107803263    1.975249989781    0.023683518403
 H    5.072892099601    3.018994920657    0.045102334096
 C    2.780777121425    0.522660152387    0.002785162123
 O    1.563003089893    0.355717446320    0.003781242897
 N    3.706083137036   -0.514117457455   -0.024871374866
 H    3.311509429173   -1.452631767304   -0.045380248264
 C    5.111813515431   -0.428078745137   -0.033319425657
 O    5.800134187859   -1.451695966939   -0.061427364210
 C    5.641582696496    0.940310123597   -0.004713056523
 C    7.133872590102    1.124168449059   -0.009543866349
 H    7.395420219182    2.192596325927    0.013110301798
 H    7.574016903692    0.665848229637   -0.908652117795
 H    7.584877796811    0.625681963753    0.862392970564
 H    2.738186167525    2.560028350114    0.047210571069
CS   -4.183250992540   -0.432027390924    0.008481403244
