16

 N    3.533040800976    1.796687930975    0.027190375493
 C    4.903656213385    1.996162608816    0.023558741117
 H    5.225440509723    3.039907539692    0.044977556810
 C    2.933325531547    0.543572771422    0.002660384837
 O    1.715551500015    0.376630065355    0.003656465611
 N    3.858631547158   -0.493204838420   -0.024996152152
 H    3.464057839295   -1.431719148269   -0.045505025550
 C    5.264361925553   -0.407166126102   -0.033444202943
 O    5.952682597981   -1.430783347904   -0.061552141496
 C    5.794131106618    0.961222742632   -0.004837833809
 C    7.286421000224    1.145081068094   -0.009668643635
 H    7.547968629304    2.213508944962    0.012985524512
 H    7.726565313814    0.686760848672   -0.908776895081
 H    7.737426206933    0.646594582788    0.862268193278
 H    2.890734577647    2.580940969149    0.047085793783
CS   -4.327922621165   -0.451860194506    0.008599737700
