16

 N    3.583890271017    1.803658803987    0.027148783065
 C    4.954505683426    2.003133481828    0.023517148689
 H    5.276289979764    3.046878412704    0.044935964382
 C    2.984175001588    0.550543644434    0.002618792409
 O    1.766400970056    0.383600938367    0.003614873183
 N    3.909481017199   -0.486233965408   -0.025037744580
 H    3.514907309336   -1.424748275257   -0.045546617978
 C    5.315211395594   -0.400195253090   -0.033485795371
 O    6.003532068022   -1.423812474892   -0.061593733924
 C    5.844980576659    0.968193615644   -0.004879426237
 C    7.337270470265    1.152051941106   -0.009710236063
 H    7.598818099345    2.220479817974    0.012943932084
 H    7.777414783855    0.693731721684   -0.908818487509
 H    7.788275676974    0.653565455800    0.862226600850
 H    2.941584047688    2.587911842161    0.047044201355
CS   -4.376146497373   -0.458471129033    0.008639182519
