16

 N    3.736438681139    1.824571423022    0.027024005779
 C    5.107054093548    2.024046100863    0.023392371403
 H    5.428838389886    3.067791031739    0.044811187096
 C    3.136723411710    0.571456263469    0.002494015123
 O    1.918949380178    0.404513557402    0.003490095897
 N    4.062029427321   -0.465321346373   -0.025162521866
 H    3.667455719458   -1.403835656222   -0.045671395264
 C    5.467759805716   -0.379282634055   -0.033610572657
 O    6.156080478144   -1.402899855857   -0.061718511210
 C    5.997528986781    0.989106234679   -0.005004203523
 C    7.489818880387    1.172964560141   -0.009835013349
 H    7.751366509467    2.241392437009    0.012819154798
 H    7.929963193977    0.714644340719   -0.908943264795
 H    7.940824087096    0.674478074835    0.862101823564
 H    3.094132457810    2.608824461196    0.046919424069
CS   -4.520818125998   -0.478303932614    0.008757516975
