16

 N    3.838137621220    1.838513169045    0.026940820922
 C    5.208753033629    2.037987846886    0.023309186546
 H    5.530537329967    3.081732777762    0.044728002239
 C    3.238422351791    0.585398009492    0.002410830266
 O    2.020648320259    0.418455303425    0.003406911040
 N    4.163728367402   -0.451379600350   -0.025245706723
 H    3.769154659539   -1.389893910199   -0.045754580121
 C    5.569458745797   -0.365340888032   -0.033693757514
 O    6.257779418225   -1.388958109834   -0.061801696067
 C    6.099227926862    1.003047980702   -0.005087388380
 C    7.591517820468    1.186906306164   -0.009918198206
 H    7.853065449548    2.255334183032    0.012735969941
 H    8.031662134058    0.728586086742   -0.909026449652
 H    8.042523027177    0.688419820858    0.862018638707
 H    3.195831397891    2.622766207219    0.046836239212
CS   -4.617265878414   -0.491525801668    0.008836406612
