16

 N    4.244933381545    1.894280153138    0.026608081493
 C    5.615548793954    2.093754830979    0.022976447117
 H    5.937333090292    3.137499761855    0.044395262810
 C    3.645218112116    0.641164993585    0.002078090837
 O    2.427444080584    0.474222287518    0.003074171611
 N    4.570524127727   -0.395612616257   -0.025578446152
 H    4.175950419864   -1.334126926106   -0.046087319550
 C    5.976254506122   -0.309573903939   -0.034026496943
 O    6.664575178550   -1.333191125741   -0.062134435496
 C    6.506023687187    1.058814964795   -0.005420127809
 C    7.998313580793    1.242673290257   -0.010250937635
 H    8.259861209873    2.311101167125    0.012403230512
 H    8.438457894383    0.784353070835   -0.909359189081
 H    8.449318787502    0.744186804951    0.861685899278
 H    3.602627158216    2.678533191312    0.046503499783
CS   -5.003056888080   -0.544413277885    0.009151965162
