16

 N    4.448331261708    1.922163645184    0.026441711778
 C    5.818946674117    2.121638323025    0.022810077402
 H    6.140730970455    3.165383253901    0.044228893095
 C    3.848615992279    0.669048485631    0.001911721122
 O    2.630841960747    0.502105779564    0.002907801896
 N    4.773922007890   -0.367729124211   -0.025744815867
 H    4.379348300027   -1.306243434060   -0.046253689265
 C    6.179652386285   -0.281690411893   -0.034192866658
 O    6.867973058713   -1.305307633695   -0.062300805211
 C    6.709421567350    1.086698456841   -0.005586497524
 C    8.201711460956    1.270556782303   -0.010417307350
 H    8.463259090036    2.338984659171    0.012236860797
 H    8.641855774546    0.812236562881   -0.909525558796
 H    8.652716667665    0.772070296997    0.861519529563
 H    3.806025038379    2.706416683358    0.046337130068
CS   -5.195952392913   -0.570857015993    0.009309744437
