16

 N    4.499180731749    1.929134518196    0.026400119350
 C    5.869796144158    2.128609196037    0.022768484974
 H    6.191580440496    3.172354126913    0.044187300667
 C    3.899465462320    0.676019358643    0.001870128694
 O    2.681691430788    0.509076652576    0.002866209468
 N    4.824771477931   -0.360758251199   -0.025786408295
 H    4.430197770068   -1.299272561048   -0.046295281693
 C    6.230501856326   -0.274719538881   -0.034234459086
 O    6.918822528754   -1.298336760683   -0.062342397639
 C    6.760271037391    1.093669329853   -0.005628089952
 C    8.252560930997    1.277527655315   -0.010458899778
 H    8.514108560077    2.345955532183    0.012195268369
 H    8.692705244587    0.819207435893   -0.909567151224
 H    8.703566137706    0.779041170009    0.861477937135
 H    3.856874508420    2.713387556370    0.046295537640
CS   -5.244176269121   -0.577467950520    0.009349189256
