16

 N    4.651729141870    1.950047137231    0.026275342064
 C    6.022344554279    2.149521815072    0.022643707688
 H    6.344128850617    3.193266745948    0.044062523381
 C    4.052013872441    0.696931977678    0.001745351408
 O    2.834239840909    0.529989271611    0.002741432182
 N    4.977319888052   -0.339845632164   -0.025911185581
 H    4.582746180189   -1.278359942013   -0.046420058979
 C    6.383050266447   -0.253806919846   -0.034359236372
 O    7.071370938875   -1.277424141648   -0.062467174925
 C    6.912819447512    1.114581948888   -0.005752867238
 C    8.405109341118    1.298440274350   -0.010583677064
 H    8.666656970198    2.366868151218    0.012070491083
 H    8.845253654708    0.840120054928   -0.909691928510
 H    8.856114547827    0.799953789044    0.861353159849
 H    4.009422918541    2.734300175405    0.046170760354
CS   -5.388847897746   -0.597300754101    0.009467523712
