16

 N    4.753428081952    1.963988883254    0.026192157207
 C    6.124043494361    2.163463561095    0.022560522831
 H    6.445827790699    3.207208491971    0.043979338524
 C    4.153712812523    0.710873723701    0.001662166551
 O    2.935938780991    0.543931017634    0.002658247325
 N    5.079018828134   -0.325903886141   -0.025994370438
 H    4.684445120271   -1.264418195990   -0.046503243836
 C    6.484749206529   -0.239865173823   -0.034442421229
 O    7.173069878957   -1.263482395625   -0.062550359782
 C    7.014518387594    1.128523694911   -0.005836052095
 C    8.506808281200    1.312382020373   -0.010666861921
 H    8.768355910280    2.380809897241    0.011987306226
 H    8.946952594790    0.854061800951   -0.909775113367
 H    8.957813487909    0.813895535067    0.861269974992
 H    4.111121858623    2.748241921428    0.046087575497
CS   -5.485295650162   -0.610522623156    0.009546413350
