16

 N    4.905976492074    1.984901502289    0.026067379921
 C    6.276591904483    2.184376180130    0.022435745545
 H    6.598376200821    3.228121111006    0.043854561238
 C    4.306261222645    0.731786342736    0.001537389265
 O    3.088487191113    0.564843636669    0.002533470039
 N    5.231567238256   -0.304991267106   -0.026119147724
 H    4.836993530393   -1.243505576955   -0.046628021122
 C    6.637297616651   -0.218952554788   -0.034567198515
 O    7.325618289079   -1.242569776590   -0.062675137068
 C    7.167066797716    1.149436313946   -0.005960829381
 C    8.659356691322    1.333294639408   -0.010791639207
 H    8.920904320402    2.401722516276    0.011862528940
 H    9.099501004912    0.874974419986   -0.909899890653
 H    9.110361898031    0.834808154102    0.861145197706
 H    4.263670268745    2.769154540463    0.045962798211
CS   -5.629967278787   -0.630355426737    0.009664747806
