16

 N    4.956825962114    1.991872375301    0.026025787492
 C    6.327441374523    2.191347053142    0.022394153116
 H    6.649225670861    3.235091984018    0.043812968809
 C    4.357110692685    0.738757215748    0.001495796836
 O    3.139336661153    0.571814509681    0.002491877610
 N    5.282416708296   -0.298020394094   -0.026160740153
 H    4.887843000433   -1.236534703943   -0.046669613551
 C    6.688147086691   -0.211981681776   -0.034608790944
 O    7.376467759119   -1.235598903578   -0.062716729497
 C    7.217916267756    1.156407186958   -0.006002421810
 C    8.710206161362    1.340265512420   -0.010833231636
 H    8.971753790442    2.408693389288    0.011820936511
 H    9.150350474952    0.881945292998   -0.909941483082
 H    9.161211368071    0.841779027114    0.861103605277
 H    4.314519738785    2.776125413475    0.045921205782
CS   -5.678191154995   -0.636966361264    0.009704192625
