16

 N    5.058524902196    2.005814121324    0.025942602635
 C    6.429140314605    2.205288799165    0.022310968259
 H    6.750924610943    3.249033730041    0.043729783952
 C    4.458809632767    0.752698961771    0.001412611979
 O    3.241035601235    0.585756255704    0.002408692753
 N    5.384115648378   -0.284078648071   -0.026243925010
 H    4.989541940515   -1.222592957920   -0.046752798408
 C    6.789846026773   -0.198039935753   -0.034691975801
 O    7.478166699201   -1.221657157555   -0.062799914354
 C    7.319615207838    1.170348932981   -0.006085606667
 C    8.811905101444    1.354207258443   -0.010916416493
 H    9.073452730524    2.422635135311    0.011737751654
 H    9.252049415034    0.895887039021   -0.910024667939
 H    9.262910308153    0.855720773137    0.861020420420
 H    4.416218678867    2.790067159498    0.045838020925
CS   -5.774638907412   -0.650188230318    0.009783082262
