16

 N    5.211073312317    2.026726740359    0.025817825349
 C    6.581688724726    2.226201418200    0.022186190973
 H    6.903473021064    3.269946349076    0.043605006666
 C    4.611358042888    0.773611580806    0.001287834693
 O    3.393584011356    0.606668874739    0.002283915467
 N    5.536664058499   -0.263166029036   -0.026368702296
 H    5.142090350636   -1.201680338885   -0.046877575694
 C    6.942394436894   -0.177127316718   -0.034816753087
 O    7.630715109322   -1.200744538520   -0.062924691640
 C    7.472163617959    1.191261552016   -0.006210383953
 C    8.964453511565    1.375119877478   -0.011041193779
 H    9.226001140645    2.443547754346    0.011612974368
 H    9.404597825155    0.916799658056   -0.910149445225
 H    9.415458718274    0.876633392172    0.860895643134
 H    4.568767088988    2.810979778533    0.045713243639
CS   -5.919310536036   -0.670021033899    0.009901416718
