16

 N    5.261922782358    2.033697613370    0.025776232920
 C    6.632538194767    2.233172291211    0.022144598544
 H    6.954322491105    3.276917222087    0.043563414237
 C    4.662207512929    0.780582453817    0.001246242264
 O    3.444433481397    0.613639747750    0.002242323038
 N    5.587513528540   -0.256195156025   -0.026410294725
 H    5.192939820677   -1.194709465874   -0.046919168123
 C    6.993243906935   -0.170156443707   -0.034858345516
 O    7.681564579363   -1.193773665509   -0.062966284069
 C    7.523013088000    1.198232425027   -0.006251976382
 C    9.015302981606    1.382090750489   -0.011082786208
 H    9.276850610686    2.450518627357    0.011571381939
 H    9.455447295196    0.923770531067   -0.910191037654
 H    9.466308188315    0.883604265183    0.860854050705
 H    4.619616559029    2.817950651544    0.045671651210
CS   -5.967534412244   -0.676631968426    0.009940861537
