16

 N    5.312772252399    2.040668486382    0.025734640492
 C    6.683387664808    2.240143164223    0.022103006116
 H    7.005171961146    3.283888095099    0.043521821809
 C    4.713056982970    0.787553326829    0.001204649836
 O    3.495282951438    0.620610620762    0.002200730610
 N    5.638362998581   -0.249224283013   -0.026451887153
 H    5.243789290718   -1.187738592862   -0.046960760551
 C    7.044093376976   -0.163185570695   -0.034899937944
 O    7.732414049404   -1.186802792497   -0.063007876497
 C    7.573862558041    1.205203298039   -0.006293568810
 C    9.066152451647    1.389061623501   -0.011124378636
 H    9.327700080727    2.457489500369    0.011529789511
 H    9.506296765237    0.930741404079   -0.910232630082
 H    9.517157658356    0.890575138195    0.860812458277
 H    4.670466029070    2.824921524556    0.045630058782
CS   -6.015758288453   -0.683242902954    0.009980306356
