13

 N   -0.876284218085    0.761061557203   -0.257881079957
 C    0.297455364998    1.488433748713   -0.258193559127
 H    0.179738504935    2.573752207757   -0.258309406686
 C   -0.922060191165   -0.632150234664   -0.258266134526
 O   -1.973648359721   -1.266253548505   -0.257922767422
 N    0.338380349976   -1.215620290796   -0.257849231204
 H    0.348196147099   -2.233905402662   -0.257876535299
 C    1.599634639209   -0.579564803833   -0.257832136368
 O    2.633327567277   -1.248828638249   -0.258577802032
 C    1.518155847449    0.880982257557   -0.258332033815
 H    2.441555985751    1.458042516423   -0.258672710592
 H   -1.780021394033    1.220715678563   -0.258082731557
 K   -0.876102732822    0.761198299749    0.742118894226
