13

 N   -0.876288901370    0.761058028518   -0.283686399243
 C    0.297450681713    1.488430220028   -0.283998878413
 H    0.179733821650    2.573748679072   -0.284114725972
 C   -0.922064874450   -0.632153763349   -0.284071453812
 O   -1.973653043006   -1.266257077190   -0.283728086708
 N    0.338375666691   -1.215623819481   -0.283654550490
 H    0.348191463814   -2.233908931347   -0.283681854585
 C    1.599629955924   -0.579568332518   -0.283637455654
 O    2.633322883992   -1.248832166934   -0.284383121318
 C    1.518151164164    0.880978728872   -0.284137353101
 H    2.441551302466    1.458038987738   -0.284478029878
 H   -1.780026077318    1.220712149878   -0.283888050843
 K   -0.876089267581    0.761208445319    0.816313572357
