13

 N   -0.876293584655    0.761054499833   -0.309491718530
 C    0.297445998428    1.488426691343   -0.309804197700
 H    0.179729138365    2.573745150387   -0.309920045259
 C   -0.922069557735   -0.632157292034   -0.309876773099
 O   -1.973657726291   -1.266260605875   -0.309533405995
 N    0.338370983406   -1.215627348166   -0.309459869777
 H    0.348186780529   -2.233912460032   -0.309487173872
 C    1.599625272639   -0.579571861203   -0.309442774941
 O    2.633318200707   -1.248835695619   -0.310188440605
 C    1.518146480879    0.880975200187   -0.309942672388
 H    2.441546619181    1.458035459053   -0.310283349165
 H   -1.780030760603    1.220708621193   -0.309693370130
 K   -0.876075802340    0.761218590888    0.890508250488
