13

 N   -0.876312317796    0.761040385093   -0.412712995678
 C    0.297427265287    1.488412576603   -0.413025474848
 H    0.179710405224    2.573731035647   -0.413141322407
 C   -0.922088290876   -0.632171406774   -0.413098050247
 O   -1.973676459432   -1.266274720615   -0.412754683143
 N    0.338352250265   -1.215641462906   -0.412681146925
 H    0.348168047388   -2.233926574772   -0.412708451020
 C    1.599606539498   -0.579585975943   -0.412664052089
 O    2.633299467566   -1.248849810359   -0.413409717753
 C    1.518127747738    0.880961085447   -0.413163949536
 H    2.441527886040    1.458021344313   -0.413504626313
 H   -1.780049493744    1.220694506453   -0.412914647278
 K   -0.876021941376    0.761259173166    1.187286963013
