13

 N   -0.876326367652    0.761029799037   -0.490128953539
 C    0.297413215431    1.488401990547   -0.490441432709
 H    0.179696355368    2.573720449591   -0.490557280268
 C   -0.922102340732   -0.632181992830   -0.490514008108
 O   -1.973690509288   -1.266285306671   -0.490170641004
 N    0.338338200409   -1.215652048962   -0.490097104786
 H    0.348153997532   -2.233937160828   -0.490124408881
 C    1.599592489642   -0.579596561999   -0.490080009950
 O    2.633285417710   -1.248860396415   -0.490825675614
 C    1.518113697882    0.880950499391   -0.490579907397
 H    2.441513836184    1.458010758257   -0.490920584174
 H   -1.780063543600    1.220683920397   -0.490330605139
 K   -0.875981545653    0.761289609874    1.409870997407
