13

 N   -0.876705713759    0.760743975540   -2.580359815783
 C    0.297033869324    1.488116167050   -2.580672294953
 H    0.179317009261    2.573434626094   -2.580788142512
 C   -0.922481686839   -0.632467816327   -2.580744870352
 O   -1.974069855395   -1.266571130168   -2.580401503248
 N    0.337958854302   -1.215937872459   -2.580327967030
 H    0.347774651425   -2.234222984325   -2.580355271125
 C    1.599213143535   -0.579882385496   -2.580310872194
 O    2.632906071603   -1.249146219912   -2.581056537858
 C    1.517734351775    0.880664675894   -2.580810769641
 H    2.441134490077    1.457724934760   -2.581151446418
 H   -1.780442889707    1.220398096900   -2.580561467383
 K   -0.874890861132    0.762111400999    7.419639926040
