13

 N   -0.876349784079    0.761012155611   -0.619155549974
 C    0.297389799004    1.488384347121   -0.619468029144
 H    0.179672938941    2.573702806165   -0.619583876703
 C   -0.922125757159   -0.632199636256   -0.619540604543
 O   -1.973713925715   -1.266302950097   -0.619197237439
 N    0.338314783982   -1.215669692388   -0.619123701221
 H    0.348130581105   -2.233954804254   -0.619151005316
 C    1.599569073215   -0.579614205425   -0.619106606385
 O    2.633262001283   -1.248878039841   -0.619852272049
 C    1.518090281455    0.880932855965   -0.619606503832
 H    2.441490419757    1.457993114831   -0.619947180609
 H   -1.780086960027    1.220666276971   -0.619357201574
 K   -0.875914219448    0.761340337721    1.780844388064
