13

 N   -0.876382567075    0.760987454815   -0.799792784983
 C    0.297357016008    1.488359646325   -0.800105264153
 H    0.179640155945    2.573678105369   -0.800221111712
 C   -0.922158540155   -0.632224337052   -0.800177839552
 O   -1.973746708711   -1.266327650893   -0.799834472448
 N    0.338282000986   -1.215694393184   -0.799760936230
 H    0.348097798109   -2.233979505050   -0.799788240325
 C    1.599536290219   -0.579638906221   -0.799743841394
 O    2.633229218287   -1.248902740637   -0.800489507058
 C    1.518057498459    0.880908155169   -0.800243738841
 H    2.441457636761    1.457968414035   -0.800584415618
 H   -1.780119743023    1.220641576175   -0.799994436583
 K   -0.875819962761    0.761411356708    2.300207134983
