13

 N   -0.876387250361    0.760983926130   -0.825598104270
 C    0.297352332722    1.488356117640   -0.825910583440
 H    0.179635472659    2.573674576684   -0.826026430999
 C   -0.922163223441   -0.632227865737   -0.825983158839
 O   -1.973751391997   -1.266331179578   -0.825639791735
 N    0.338277317700   -1.215697921869   -0.825566255517
 H    0.348093114823   -2.233983033735   -0.825593559612
 C    1.599531606933   -0.579642434906   -0.825549160681
 O    2.633224535001   -1.248906269322   -0.826294826345
 C    1.518052815173    0.880904626484   -0.826049058128
 H    2.441452953475    1.457964885350   -0.826389734905
 H   -1.780124426309    1.220638047490   -0.825799755870
 K   -0.875806497520    0.761421502277    2.374401813114
