13

 N   -0.876424716643    0.760955696649   -1.032040658565
 C    0.297314866440    1.488327888159   -1.032353137735
 H    0.179598006377    2.573646347203   -1.032468985294
 C   -0.922200689723   -0.632256095218   -1.032425713134
 O   -1.973788858279   -1.266359409059   -1.032082346030
 N    0.338239851418   -1.215726151350   -1.032008809812
 H    0.348055648541   -2.234011263216   -1.032036113907
 C    1.599494140651   -0.579670664387   -1.031991714976
 O    2.633187068719   -1.248934498803   -1.032737380640
 C    1.518015348891    0.880876397003   -1.032491612423
 H    2.441415487193    1.457936655869   -1.032832289200
 H   -1.780161892591    1.220609818009   -1.032242310165
 K   -0.875698775592    0.761502666832    2.967959238164
