13

 N   -0.876434083213    0.760948639279   -1.083651297139
 C    0.297305499870    1.488320830789   -1.083963776309
 H    0.179588639807    2.573639289833   -1.084079623868
 C   -0.922210056293   -0.632263152588   -1.084036351708
 O   -1.973798224849   -1.266366466429   -1.083692984604
 N    0.338230484848   -1.215733208720   -1.083619448386
 H    0.348046281971   -2.234018320586   -1.083646752481
 C    1.599484774081   -0.579677721757   -1.083602353550
 O    2.633177702149   -1.248941556173   -1.084348019214
 C    1.518005982321    0.880869339633   -1.084102250997
 H    2.441406120623    1.457929598499   -1.084442927774
 H   -1.780171259161    1.220602760639   -1.083852948739
 K   -0.875671845110    0.761522957971    3.116348594426
