13

 N   -0.876438766499    0.760945110594   -1.109456616426
 C    0.297300816584    1.488317302104   -1.109769095596
 H    0.179583956521    2.573635761148   -1.109884943155
 C   -0.922214739579   -0.632266681273   -1.109841670995
 O   -1.973802908135   -1.266369995114   -1.109498303891
 N    0.338225801562   -1.215736737405   -1.109424767673
 H    0.348041598685   -2.234021849271   -1.109452071768
 C    1.599480090795   -0.579681250442   -1.109407672837
 O    2.633173018863   -1.248945084858   -1.110153338501
 C    1.518001299035    0.880865810948   -1.109907570284
 H    2.441401437337    1.457926069814   -1.110248247061
 H   -1.780175942447    1.220599231954   -1.109658268026
 K   -0.875658379869    0.761533103541    3.190543272558
