13

 N   -0.876452816355    0.760934524538   -1.186872574287
 C    0.297286766728    1.488306716048   -1.187185053457
 H    0.179569906665    2.573625175092   -1.187300901016
 C   -0.922228789435   -0.632277267329   -1.187257628856
 O   -1.973816957991   -1.266380581170   -1.186914261752
 N    0.338211751706   -1.215747323461   -1.186840725534
 H    0.348027548829   -2.234032435327   -1.186868029629
 C    1.599466040939   -0.579691836498   -1.186823630698
 O    2.633158969007   -1.248955670914   -1.187569296362
 C    1.517987249179    0.880855224892   -1.187323528145
 H    2.441387387481    1.457915483758   -1.187664204922
 H   -1.780189992303    1.220588645898   -1.187074225887
 K   -0.875617984146    0.761563540249    3.413127306952
