13

 N   -0.876462182925    0.760927467168   -1.238483212861
 C    0.297277400158    1.488299658678   -1.238795692031
 H    0.179560540095    2.573618117722   -1.238911539590
 C   -0.922238156005   -0.632284324699   -1.238868267430
 O   -1.973826324561   -1.266387638540   -1.238524900326
 N    0.338202385136   -1.215754380831   -1.238451364108
 H    0.348018182259   -2.234039492697   -1.238478668203
 C    1.599456674369   -0.579698893868   -1.238434269272
 O    2.633149602437   -1.248962728284   -1.239179934936
 C    1.517977882609    0.880848167522   -1.238934166719
 H    2.441378020911    1.457908426388   -1.239274843496
 H   -1.780199358873    1.220581588528   -1.238684864461
 K   -0.875591053664    0.761583831388    3.561516663214
