13

 N   -0.876466866210    0.760923938483   -1.264288532148
 C    0.297272716873    1.488296129993   -1.264601011318
 H    0.179555856810    2.573614589037   -1.264716858877
 C   -0.922242839290   -0.632287853384   -1.264673586717
 O   -1.973831007846   -1.266391167225   -1.264330219613
 N    0.338197701851   -1.215757909516   -1.264256683395
 H    0.348013498974   -2.234043021382   -1.264283987490
 C    1.599451991084   -0.579702422553   -1.264239588559
 O    2.633144919152   -1.248966256969   -1.264985254223
 C    1.517973199324    0.880844638837   -1.264739486006
 H    2.441373337626    1.457904897703   -1.265080162783
 H   -1.780204042158    1.220578059843   -1.264490183748
 K   -0.875577588423    0.761593976957    3.635711341345
