13

 N   -0.876471549496    0.760920409797   -1.290093851435
 C    0.297268033587    1.488292601307   -1.290406330605
 H    0.179551173524    2.573611060351   -1.290522178164
 C   -0.922247522576   -0.632291382070   -1.290478906004
 O   -1.973835691132   -1.266394695911   -1.290135538900
 N    0.338193018565   -1.215761438202   -1.290062002682
 H    0.348008815688   -2.234046550068   -1.290089306777
 C    1.599447307798   -0.579705951239   -1.290044907846
 O    2.633140235866   -1.248969785655   -1.290790573510
 C    1.517968516038    0.880841110151   -1.290544805293
 H    2.441368654340    1.457901369017   -1.290885482070
 H   -1.780208725444    1.220574531157   -1.290295503035
 K   -0.875564123182    0.761604122527    3.709906019477
