13

 N   -0.876480916066    0.760913352427   -1.341704490009
 C    0.297258667017    1.488285543937   -1.342016969179
 H    0.179541806954    2.573604002981   -1.342132816738
 C   -0.922256889146   -0.632298439440   -1.342089544578
 O   -1.973845057702   -1.266401753281   -1.341746177474
 N    0.338183651995   -1.215768495572   -1.341672641256
 H    0.347999449118   -2.234053607438   -1.341699945351
 C    1.599437941228   -0.579713008609   -1.341655546420
 O    2.633130869296   -1.248976843025   -1.342401212084
 C    1.517959149468    0.880834052781   -1.342155443867
 H    2.441359287770    1.457894311647   -1.342496120644
 H   -1.780218092014    1.220567473787   -1.341906141609
 K   -0.875537192700    0.761624413666    3.858295375739
