13

 N   -0.876499649207    0.760899237687   -1.444925767156
 C    0.297239933876    1.488271429197   -1.445238246326
 H    0.179523073813    2.573589888241   -1.445354093885
 C   -0.922275622287   -0.632312554180   -1.445310821725
 O   -1.973863790843   -1.266415868021   -1.444967454621
 N    0.338164918854   -1.215782610312   -1.444893918403
 H    0.347980715977   -2.234067722178   -1.444921222498
 C    1.599419208087   -0.579727123349   -1.444876823567
 O    2.633112136155   -1.248990957765   -1.445622489231
 C    1.517940416327    0.880819938041   -1.445376721014
 H    2.441340554629    1.457880196907   -1.445717397791
 H   -1.780236825155    1.220553359047   -1.445127418756
 K   -0.875483331736    0.761664995944    4.155074088264
