13

 N   -0.876504332493    0.760895709001   -1.470731086443
 C    0.297235250590    1.488267900511   -1.471043565613
 H    0.179518390527    2.573586359555   -1.471159413172
 C   -0.922280305573   -0.632316082866   -1.471116141012
 O   -1.973868474129   -1.266419396707   -1.470772773908
 N    0.338160235568   -1.215786138998   -1.470699237690
 H    0.347976032691   -2.234071250864   -1.470726541785
 C    1.599414524801   -0.579730652035   -1.470682142854
 O    2.633107452869   -1.248994486451   -1.471427808518
 C    1.517935733041    0.880816409355   -1.471182040301
 H    2.441335871343    1.457876668221   -1.471522717078
 H   -1.780241508441    1.220549830361   -1.470932738043
 K   -0.875469866495    0.761675141513    4.229268766396
