13

 N   -0.876541798775    0.760867479520   -1.677173640739
 C    0.297197784308    1.488239671030   -1.677486119909
 H    0.179480924245    2.573558130074   -1.677601967468
 C   -0.922317771855   -0.632344312347   -1.677558695308
 O   -1.973905940411   -1.266447626188   -1.677215328204
 N    0.338122769286   -1.215814368479   -1.677141791986
 H    0.347938566409   -2.234099480345   -1.677169096081
 C    1.599377058519   -0.579758881516   -1.677124697150
 O    2.633069986587   -1.249022715932   -1.677870362814
 C    1.517898266759    0.880788179874   -1.677624594597
 H    2.441298405061    1.457848438740   -1.677965271374
 H   -1.780278974723    1.220521600880   -1.677375292339
 K   -0.875362144567    0.761756306068    4.822826191446
