13

 N   -0.876560531916    0.760853364780   -1.780394917887
 C    0.297179051167    1.488225556290   -1.780707397057
 H    0.179462191104    2.573544015334   -1.780823244616
 C   -0.922336504996   -0.632358427087   -1.780779972456
 O   -1.973924673552   -1.266461740928   -1.780436605352
 N    0.338104036145   -1.215828483219   -1.780363069134
 H    0.347919833268   -2.234113595085   -1.780390373229
 C    1.599358325378   -0.579772996256   -1.780345974298
 O    2.633051253446   -1.249036830672   -1.781091639962
 C    1.517879533618    0.880774065134   -1.780845871745
 H    2.441279671920    1.457834324000   -1.781186548522
 H   -1.780297707864    1.220507486140   -1.780596569487
 K   -0.875308283603    0.761796888346    5.119604903971
