13

 N   -0.876565215201    0.760849836095   -1.806200237174
 C    0.297174367882    1.488222027605   -1.806512716344
 H    0.179457507819    2.573540486649   -1.806628563903
 C   -0.922341188281   -0.632361955772   -1.806585291743
 O   -1.973929356837   -1.266465269613   -1.806241924639
 N    0.338099352860   -1.215832011904   -1.806168388421
 H    0.347915149983   -2.234117123770   -1.806195692516
 C    1.599353642093   -0.579776524941   -1.806151293585
 O    2.633046570161   -1.249040359357   -1.806896959249
 C    1.517874850333    0.880770536449   -1.806651191032
 H    2.441274988635    1.457830795315   -1.806991867809
 H   -1.780302391149    1.220503957455   -1.806401888774
 K   -0.875294818362    0.761807033916    5.193799582102
