13

 N   -0.876616731339    0.760811020558   -2.090058749330
 C    0.297122851744    1.488183212068   -2.090371228500
 H    0.179405991681    2.573501671112   -2.090487076059
 C   -0.922392704419   -0.632400771309   -2.090443803899
 O   -1.973980872975   -1.266504085150   -2.090100436795
 N    0.338047836722   -1.215870827441   -2.090026900577
 H    0.347863633845   -2.234155939307   -2.090054204672
 C    1.599302125955   -0.579815340478   -2.090009805741
 O    2.632995054023   -1.249079174894   -2.090755471405
 C    1.517823334195    0.880731720912   -2.090509703188
 H    2.441223472497    1.457791979778   -2.090850379965
 H   -1.780353907287    1.220465141918   -2.090260400930
 K   -0.875146700711    0.761918635180    6.009941041546
