13

 N   -0.876630781195    0.760800434502   -2.167474707191
 C    0.297108801888    1.488172626012   -2.167787186361
 H    0.179391941825    2.573491085056   -2.167903033920
 C   -0.922406754275   -0.632411357365   -2.167859761760
 O   -1.973994922831   -1.266514671206   -2.167516394656
 N    0.338033786866   -1.215881413497   -2.167442858438
 H    0.347849583989   -2.234166525363   -2.167470162533
 C    1.599288076099   -0.579825926534   -2.167425763602
 O    2.632981004167   -1.249089760950   -2.168171429266
 C    1.517809284339    0.880721134856   -2.167925661049
 H    2.441209422641    1.457781393722   -2.168266337826
 H   -1.780367957143    1.220454555862   -2.167676358791
 K   -0.875106304988    0.761949071888    6.232525075940
