13

 N   -0.876635464480    0.760796905817   -2.193280026478
 C    0.297104118603    1.488169097327   -2.193592505648
 H    0.179387258540    2.573487556371   -2.193708353207
 C   -0.922411437560   -0.632414886050   -2.193665081047
 O   -1.973999606116   -1.266518199891   -2.193321713943
 N    0.338029103581   -1.215884942182   -2.193248177725
 H    0.347844900704   -2.234170054048   -2.193275481820
 C    1.599283392814   -0.579829455219   -2.193231082889
 O    2.632976320882   -1.249093289635   -2.193976748553
 C    1.517804601054    0.880717606171   -2.193730980336
 H    2.441204739356    1.457777865037   -2.194071657113
 H   -1.780372640428    1.220451027177   -2.193481678078
 K   -0.875092839747    0.761959217457    6.306719754071
