13

 N   -0.876644831051    0.760789848447   -2.244890665052
 C    0.297094752032    1.488162039957   -2.245203144222
 H    0.179377891969    2.573480499001   -2.245318991781
 C   -0.922420804131   -0.632421943420   -2.245275719621
 O   -1.974008972687   -1.266525257261   -2.244932352517
 N    0.338019737010   -1.215891999552   -2.244858816299
 H    0.347835534133   -2.234177111418   -2.244886120394
 C    1.599274026243   -0.579836512589   -2.244841721463
 O    2.632966954311   -1.249100347005   -2.245587387127
 C    1.517795234483    0.880710548801   -2.245341618910
 H    2.441195372785    1.457770807667   -2.245682295687
 H   -1.780382006999    1.220443969807   -2.245092316652
 K   -0.875065909265    0.761979508596    6.455109110334
