13

 N   -0.876649514336    0.760786319762   -2.270695984339
 C    0.297090068747    1.488158511272   -2.271008463509
 H    0.179373208684    2.573476970316   -2.271124311068
 C   -0.922425487416   -0.632425472105   -2.271081038908
 O   -1.974013655972   -1.266528785946   -2.270737671804
 N    0.338015053725   -1.215895528237   -2.270664135586
 H    0.347830850848   -2.234180640103   -2.270691439681
 C    1.599269342958   -0.579840041274   -2.270647040750
 O    2.632962271026   -1.249103875690   -2.271392706414
 C    1.517790551198    0.880707020116   -2.271146938197
 H    2.441190689500    1.457767278982   -2.271487614974
 H   -1.780386690284    1.220440441122   -2.270897635939
 K   -0.875052444024    0.761989654166    6.529303788465
