13

 N   -0.876672930762    0.760768676336   -2.399722580774
 C    0.297066652321    1.488140867846   -2.400035059944
 H    0.179349792258    2.573459326890   -2.400150907503
 C   -0.922448903842   -0.632443115531   -2.400107635343
 O   -1.974037072398   -1.266546429372   -2.399764268239
 N    0.337991637299   -1.215913171663   -2.399690732021
 H    0.347807434422   -2.234198283529   -2.399718036116
 C    1.599245926532   -0.579857684700   -2.399673637185
 O    2.632938854600   -1.249121519116   -2.400419302849
 C    1.517767134772    0.880689376690   -2.400173534632
 H    2.441167273074    1.457749635556   -2.400514211409
 H   -1.780410106710    1.220422797696   -2.399924232374
 K   -0.874985117819    0.762040382013    6.900277179121
