13

 N   -0.876691663903    0.760754561596   -2.502943857922
 C    0.297047919180    1.488126753106   -2.503256337092
 H    0.179331059117    2.573445212150   -2.503372184651
 C   -0.922467636983   -0.632457230271   -2.503328912491
 O   -1.974055805539   -1.266560544112   -2.502985545387
 N    0.337972904158   -1.215927286403   -2.502912009169
 H    0.347788701281   -2.234212398269   -2.502939313264
 C    1.599227193391   -0.579871799440   -2.502894914333
 O    2.632920121459   -1.249135633856   -2.503640579997
 C    1.517748401631    0.880675261950   -2.503394811780
 H    2.441148539933    1.457735520816   -2.503735488557
 H   -1.780428839851    1.220408682956   -2.503145509522
 K   -0.874931256855    0.762080964291    7.197055891646
