13

 N   -0.876696347189    0.760751032910   -2.528749177209
 C    0.297043235894    1.488123224420   -2.529061656379
 H    0.179326375831    2.573441683464   -2.529177503938
 C   -0.922472320269   -0.632460758957   -2.529134231778
 O   -1.974060488825   -1.266564072798   -2.528790864674
 N    0.337968220872   -1.215930815089   -2.528717328456
 H    0.347784017995   -2.234215926955   -2.528744632551
 C    1.599222510105   -0.579875328126   -2.528700233620
 O    2.632915438173   -1.249139162542   -2.529445899284
 C    1.517743718345    0.880671733264   -2.529200131067
 H    2.441143856647    1.457731992130   -2.529540807844
 H   -1.780433523137    1.220405154270   -2.528950828809
 K   -0.874917791614    0.762091109860    7.271250569778
