13

 N   -0.876701030474    0.760747504225   -2.554554496496
 C    0.297038552609    1.488119695735   -2.554866975666
 H    0.179321692546    2.573438154779   -2.554982823225
 C   -0.922477003554   -0.632464287642   -2.554939551065
 O   -1.974065172110   -1.266567601483   -2.554596183961
 N    0.337963537587   -1.215934343774   -2.554522647743
 H    0.347779334710   -2.234219455640   -2.554549951838
 C    1.599217826820   -0.579878856811   -2.554505552907
 O    2.632910754888   -1.249142691227   -2.555251218571
 C    1.517739035060    0.880668204579   -2.555005450354
 H    2.441139173362    1.457728463445   -2.555346127131
 H   -1.780438206422    1.220401625585   -2.554756148096
 K   -0.874904326373    0.762101255429    7.345445247909
