20

 C    0.548789382199    3.170437822656    0.057150262207
 H    1.276589382199    3.955827822656    0.244240262207
 C    0.615759382199    1.977737822656   -0.656339737793
 H    1.474839382199    1.579047822656   -1.193639737793
 N   -0.761610617801    3.254727822656    0.481430262207
 H   -1.180130617801    4.057777822656    0.949430262207
 C   -1.446460617801    2.169027822656    0.008650262207
 H   -2.513380617801    2.021427822656    0.157260262207
 N   -0.626380617801    1.363257822656   -0.682689737793
 K    0.236789382199    0.809857822656    1.939250262207
 K   -0.184250617801   -0.924202177344   -1.881989737793
 N    0.596294185296   -1.297776377243    0.649897469653
 C   -0.645847317505   -1.912252123569    0.623551898969
 H   -1.504920771404   -1.513568794813    1.160843515391
 C   -0.578877516109   -3.104954359113   -0.089947713245
 H   -1.306669701183   -3.890347694777   -0.277034228100
 N    0.731522433594   -3.189246890918   -0.514222086027
 H    1.150046474873   -3.992297054780   -0.982220466037
 C    1.416370000741   -2.103545161927   -0.041440140581
 H    2.483292933937   -1.955935241382   -0.190054776723
