20

 C    0.512543948106    3.249322526476    0.017646543248
 H    1.240343948106    4.034712526476    0.204736543248
 C    0.579513948106    2.056622526476   -0.695843456752
 H    1.438593948106    1.657932526476   -1.233143456752
 N   -0.797856051894    3.333612526476    0.441926543248
 H   -1.216376051894    4.136662526476    0.909926543248
 C   -1.482706051894    2.247912526476   -0.030853456752
 H   -2.549626051894    2.100312526476    0.117756543248
 N   -0.662626051894    1.442142526476   -0.722193456752
 K    0.200543948106    0.888742526476    1.899746543248
 K   -0.220496051894   -0.845317473524   -1.921493456752
 N    0.674053711823   -1.467012513402    0.734647192182
 C   -0.568087790979   -2.081488259728    0.708301621498
 H   -1.427161244878   -1.682804930972    1.245593237921
 C   -0.501117989583   -3.274190495272   -0.005197990715
 H   -1.228910174657   -4.059583830936   -0.192284505571
 N    0.809281960120   -3.358483027077   -0.429472363497
 H    1.227806001399   -4.161533190939   -0.897470743507
 C    1.494129527267   -2.272781298086    0.043309581948
 H    2.561052460464   -2.125171377541   -0.105305054193
