20

 C    0.500462136741    3.275617427750    0.004478636928
 H    1.228262136741    4.061007427750    0.191568636928
 C    0.567432136741    2.082917427750   -0.709011363072
 H    1.426512136741    1.684227427750   -1.246311363072
 N   -0.809937863259    3.359907427750    0.428758636928
 H   -1.228457863259    4.162957427750    0.896758636928
 C   -1.494787863259    2.274207427750   -0.044021363072
 H   -2.561707863259    2.126607427750    0.104588636928
 N   -0.674707863259    1.468437427750   -0.735361363072
 K    0.188462136741    0.915037427750    1.886578636928
 K   -0.232577863259   -0.819022572250   -1.934661363072
 N    0.699973553998   -1.523424558788    0.762897099692
 C   -0.542167948803   -2.137900305115    0.736551529008
 H   -1.401241402702   -1.739216976358    1.273843145431
 C   -0.475198147407   -3.330602540659    0.023051916795
 H   -1.202990332481   -4.115995876322   -0.164034598061
 N    0.835201802296   -3.414895072463   -0.401222455987
 H    1.253725843575   -4.217945236326   -0.869220835998
 C    1.520049369443   -2.329193343472    0.071559489458
 H    2.586972302639   -2.181583422927   -0.077055146683
