20

 C   -0.478164583768    5.405504430912   -1.062121774982
 H    0.249635416232    6.190894430912   -0.875031774982
 C   -0.411194583768    4.212804430912   -1.775611774982
 H    0.447885416232    3.814114430912   -2.312911774982
 N   -1.788564583768    5.489794430912   -0.637841774982
 H   -2.207084583768    6.292844430912   -0.169841774982
 C   -2.473414583768    4.404094430912   -1.110621774982
 H   -3.540334583768    4.256494430912   -0.962011774982
 N   -1.653334583768    3.598324430912   -1.801961774982
 K   -0.790164583768    3.044924430912    0.819978225018
 K   -1.211204583768    1.310864430912   -3.001261774982
 N    2.799480770216   -6.092800235080    3.051139607989
 C    1.557339267414   -6.707275981406    3.024794037305
 H    0.698265813515   -6.308592652650    3.562085653727
 C    1.624309068810   -7.899978216950    2.311294425091
 H    0.896516883736   -8.685371552614    2.124207910236
 N    2.934709018513   -7.984270748755    1.887020052309
 H    3.353233059792   -8.787320912617    1.419021672299
 C    3.619556585660   -6.898569019764    2.359801997755
 H    4.686479518857   -6.750959099219    2.211187361613
