20

 C    0.440053079920    3.407091934118   -0.061360894672
 H    1.167853079920    4.192481934118    0.125729105328
 C    0.507023079920    2.214391934118   -0.774850894672
 H    1.366103079920    1.815701934118   -1.312150894672
 N   -0.870346920080    3.491381934118    0.362919105328
 H   -1.288866920080    4.294431934118    0.830919105328
 C   -1.555196920080    2.405681934118   -0.109860894672
 H   -2.622116920080    2.258081934118    0.038749105328
 N   -0.735116920080    1.599911934118   -0.801200894672
 K    0.128053079920    1.046511934118    1.820739105328
 K   -0.292986920080   -0.687548065882   -2.000500894672
 N    0.829572764876   -1.805484785720    0.904146637241
 C   -0.412568737926   -2.419960532046    0.877801066557
 H   -1.271642191825   -2.021277203290    1.415092682980
 C   -0.345598936530   -3.612662767590    0.164301454344
 H   -1.073391121603   -4.398056103254   -0.022785060512
 N    0.964801013174   -3.696955299395   -0.259972918438
 H    1.383325054452   -4.500005463257   -0.727971298448
 C    1.649648580320   -2.611253570404    0.212809027007
 H    2.716571513517   -2.463643649859    0.064194390866
