20

 C    0.367562211734    3.564861341760   -0.140368332591
 H    1.095362211734    4.350251341760    0.046721667409
 C    0.434532211734    2.372161341760   -0.853858332591
 H    1.293612211734    1.973471341760   -1.391158332591
 N   -0.942837788266    3.649151341760    0.283911667409
 H   -1.361357788266    4.452201341760    0.751911667409
 C   -1.627687788266    2.563451341760   -0.188868332591
 H   -2.694607788266    2.415851341760   -0.040258332591
 N   -0.807607788266    1.757681341760   -0.880208332591
 K    0.055562211734    1.204281341760    1.741731667409
 K   -0.365477788266   -0.529778658240   -2.079508332591
 N    0.985091817929   -2.143957058038    1.073646082300
 C   -0.257049684873   -2.758432804364    1.047300511616
 H   -1.116123138772   -2.359749475608    1.584592128039
 C   -0.190079883477   -3.951135039908    0.333800899403
 H   -0.917872068550   -4.736528375572    0.146714384547
 N    1.120320066227   -4.035427571713   -0.090473473379
 H    1.538844107505   -4.838477735575   -0.558471853389
 C    1.805167633373   -2.949725842722    0.382308472066
 H    2.872090566570   -2.802115922177    0.233693835925
