20

 C    0.343398589005    3.617451144307   -0.166704145231
 H    1.071198589005    4.402841144307    0.020385854769
 C    0.410368589005    2.424751144307   -0.880194145231
 H    1.269448589005    2.026061144307   -1.417494145231
 N   -0.967001410995    3.701741144307    0.257575854769
 H   -1.385521410995    4.504791144307    0.725575854769
 C   -1.651851410995    2.616041144307   -0.215204145231
 H   -2.718771410995    2.468441144307   -0.066594145231
 N   -0.831771410995    1.810271144307   -0.906544145231
 K    0.031398589005    1.256871144307    1.715395854769
 K   -0.389641410995   -0.477188855693   -2.105844145231
 N    1.036931502280   -2.256781148810    1.130145897320
 C   -0.205210000522   -2.871256895137    1.103800326636
 H   -1.064283454421   -2.472573566380    1.641091943059
 C   -0.138240199126   -4.063959130681    0.390300714422
 H   -0.866032384199   -4.849352466344    0.203214199567
 N    1.172159750578   -4.148251662485   -0.033973658360
 H    1.590683791856   -4.951301826348   -0.501972038370
 C    1.857007317724   -3.062549933494    0.438808287086
 H    2.923930250921   -2.914940012949    0.290193650944
