20

 C    0.282989532184    3.748925650675   -0.232543676830
 H    1.010789532184    4.534315650675   -0.045453676830
 C    0.349959532184    2.556225650675   -0.946033676830
 H    1.209039532184    2.157535650675   -1.483333676830
 N   -1.027410467816    3.833215650675    0.191736323170
 H   -1.445930467816    4.636265650675    0.659736323170
 C   -1.712260467816    2.747515650675   -0.281043676830
 H   -2.779180467816    2.599915650675   -0.132433676830
 N   -0.892180467816    1.941745650675   -0.972383676830
 K   -0.029010467816    1.388345650675    1.649556323170
 K   -0.450050467816   -0.345714349325   -2.171683676830
 N    1.166530713158   -2.538841375742    1.271395434869
 C   -0.075610789644   -3.153317122068    1.245049864185
 H   -0.934684243543   -2.754633793312    1.782341480608
 C   -0.008640988248   -4.346019357612    0.531550251972
 H   -0.736433173322   -5.131412693276    0.344463737116
 N    1.301758961455   -4.430311889417    0.107275879190
 H    1.720283002734   -5.233362053279   -0.360722500821
 C    1.986606528602   -3.344610160426    0.580057824635
 H    3.053529461799   -3.197000239881    0.431443188494
