20

 C    0.246744098091    3.827810354496   -0.272047395790
 H    0.974544098091    4.613200354496   -0.084957395790
 C    0.313714098091    2.635110354496   -0.985537395790
 H    1.172794098091    2.236420354496   -1.522837395790
 N   -1.063655901909    3.912100354496    0.152232604210
 H   -1.482175901909    4.715150354496    0.620232604210
 C   -1.748505901909    2.826400354496   -0.320547395790
 H   -2.815425901909    2.678800354496   -0.171937395790
 N   -0.928425901909    2.020630354496   -1.011887395790
 K   -0.065255901909    1.467230354496    1.610052604210
 K   -0.486295901909   -0.266829645504   -2.211187395790
 N    1.244290239684   -2.708077511901    1.356145157399
 C    0.002148736883   -3.322553258227    1.329799586715
 H   -0.856924717016   -2.923869929471    1.867091203137
 C    0.069118538279   -4.515255493771    0.616299974501
 H   -0.658673646795   -5.300648829435    0.429213459646
 N    1.379518487982   -4.599548025576    0.192025601719
 H    1.798042529261   -5.402598189438   -0.275972778291
 C    2.064366055129   -3.513846296585    0.664807547165
 H    3.131288988325   -3.366236376040    0.516192911023
