20

 C    0.222580475362    3.880400157043   -0.298383208429
 H    0.950380475362    4.665790157043   -0.111293208429
 C    0.289550475362    2.687700157043   -1.011873208429
 H    1.148630475362    2.289010157043   -1.549173208429
 N   -1.087819524638    3.964690157043    0.125896791571
 H   -1.506339524638    4.767740157043    0.593896791571
 C   -1.772669524638    2.878990157043   -0.346883208429
 H   -2.839589524638    2.731390157043   -0.198273208429
 N   -0.952589524638    2.073220157043   -1.038223208429
 K   -0.089419524638    1.519820157043    1.583716791571
 K   -0.510459524638   -0.214239842957   -2.237523208429
 N    1.296129924035   -2.820901602674    1.412644972418
 C    0.053988421234   -3.435377349000    1.386299401734
 H   -0.805085032665   -3.036694020243    1.923591018157
 C    0.120958222630   -4.628079584544    0.672799789521
 H   -0.606833962444   -5.413472920208    0.485713274665
 N    1.431358172333   -4.712372116349    0.248525416739
 H    1.849882213612   -5.515422280211   -0.219472963271
 C    2.116205739480   -3.626670387358    0.721307362184
 H    3.183128672676   -3.479060466812    0.572692726043
