20

 C    0.198416852633    3.932989959590   -0.324719021069
 H    0.926216852633    4.718379959590   -0.137629021069
 C    0.265386852633    2.740289959590   -1.038209021069
 H    1.124466852633    2.341599959590   -1.575509021069
 N   -1.111983147367    4.017279959590    0.099560978931
 H   -1.530503147367    4.820329959590    0.567560978931
 C   -1.796833147367    2.931579959590   -0.373219021069
 H   -2.863753147367    2.783979959590   -0.224609021069
 N   -0.976753147367    2.125809959590   -1.064559021069
 K   -0.113583147367    1.572409959590    1.557380978931
 K   -0.534623147367   -0.161650040410   -2.263859021069
 N    1.347969608386   -2.933725693446    1.469144787438
 C    0.105828105585   -3.548201439772    1.442799216754
 H   -0.753245348314   -3.149518111016    1.980090833177
 C    0.172797906981   -4.740903675316    0.729299604540
 H   -0.554994278093   -5.526297010980    0.542213089685
 N    1.483197856684   -4.825196207121    0.305025231758
 H    1.901721897963   -5.628246370984   -0.162973148252
 C    2.168045423831   -3.739494478130    0.777807177204
 H    3.234968357027   -3.591884557585    0.629192541062
