20

 C    0.113844173083    4.117054268505   -0.416894365308
 H    0.841644173083    4.902444268505   -0.229804365308
 C    0.180814173083    2.924354268505   -1.130384365308
 H    1.039894173083    2.525664268505   -1.667684365308
 N   -1.196555826917    4.201344268505    0.007385634692
 H   -1.615075826917    5.004394268505    0.475385634692
 C   -1.881405826917    3.115644268505   -0.465394365308
 H   -2.948325826917    2.968044268505   -0.316784365308
 N   -1.061325826917    2.309874268505   -1.156734365308
 K   -0.198155826917    1.756474268505    1.465205634692
 K   -0.619195826917    0.022414268505   -2.356034365308
 N    1.529408503615   -3.328610011150    1.666894140007
 C    0.287267000813   -3.943085757477    1.640548569323
 H   -0.571806453086   -3.544402428720    2.177840185745
 C    0.354236802209   -5.135787993021    0.927048957109
 H   -0.373555382864   -5.921181328684    0.739962442254
 N    1.664636751913   -5.220080524825    0.502774584327
 H    2.083160793191   -6.023130688688    0.034776204317
 C    2.349484319059   -4.134378795834    0.975556529773
 H    3.416407252256   -3.986768875289    0.826941893631
