20

 C    0.101762361719    4.143349169779   -0.430062271628
 H    0.829562361719    4.928739169779   -0.242972271628
 C    0.168732361719    2.950649169779   -1.143552271628
 H    1.027812361719    2.551959169779   -1.680852271628
 N   -1.208637638281    4.227639169779   -0.005782271628
 H   -1.627157638281    5.030689169779    0.462217728372
 C   -1.893487638281    3.141939169779   -0.478562271628
 H   -2.960407638281    2.994339169779   -0.329952271628
 N   -1.073407638281    2.336169169779   -1.169902271628
 K   -0.210237638281    1.782769169779    1.452037728372
 K   -0.631277638281    0.048709169779   -2.369202271628
 N    1.555328345791   -3.385022056537    1.695144047517
 C    0.313186842989   -3.999497802863    1.668798476833
 H   -0.545886610910   -3.600814474107    2.206090093255
 C    0.380156644385   -5.192200038407    0.955298864619
 H   -0.347635540689   -5.977593374071    0.768212349764
 N    1.690556594088   -5.276492570212    0.531024491837
 H    2.109080635367   -6.079542734074    0.063026111827
 C    2.375404161235   -4.190790841221    1.003806437283
 H    3.442327094432   -4.043180920675    0.855191801141
