20

 C    0.065516927626    4.222233873600   -0.469565990588
 H    0.793316927626    5.007623873600   -0.282475990588
 C    0.132486927626    3.029533873600   -1.183055990588
 H    0.991566927626    2.630843873600   -1.720355990588
 N   -1.244883072374    4.306523873600   -0.045285990588
 H   -1.663403072374    5.109573873600    0.422714009412
 C   -1.929733072374    3.220823873600   -0.518065990588
 H   -2.996653072374    3.073223873600   -0.369455990588
 N   -1.109653072374    2.415053873600   -1.209405990588
 K   -0.246483072374    1.861653873600    1.412534009412
 K   -0.667523072374    0.127593873600   -2.408705990588
 N    1.633087872317   -3.554258192696    1.779893770046
 C    0.390946369515   -4.168733939022    1.753548199362
 H   -0.468127084384   -3.770050610266    2.290839815785
 C    0.457916170911   -5.361436174566    1.040048587149
 H   -0.269876014162   -6.146829510230    0.852962072293
 N    1.768316120615   -5.445728706371    0.615774214367
 H    2.186840161893   -6.248778870233    0.147775834356
 C    2.453163687761   -4.360026977380    1.088556159812
 H    3.520086620958   -4.212417056834    0.939941523671
