20

 C    0.041353304897    4.274823676147   -0.495901803227
 H    0.769153304897    5.060213676147   -0.308811803227
 C    0.108323304897    3.082123676147   -1.209391803227
 H    0.967403304897    2.683433676147   -1.746691803227
 N   -1.269046695103    4.359113676147   -0.071621803227
 H   -1.687566695103    5.162163676147    0.396378196773
 C   -1.953896695103    3.273413676147   -0.544401803227
 H   -3.020816695103    3.125813676147   -0.395791803227
 N   -1.133816695103    2.467643676147   -1.235741803227
 K   -0.270646695103    1.914243676147    1.386198196773
 K   -0.691686695103    0.180183676147   -2.435041803227
 N    1.684927556668   -3.667082283468    1.836393585066
 C    0.442786053867   -4.281558029794    1.810048014382
 H   -0.416287400033   -3.882874701038    2.347339630804
 C    0.509755855262   -5.474260265339    1.096548402168
 H   -0.218036329811   -6.259653601002    0.909461887313
 N    1.820155804966   -5.558552797143    0.672274029386
 H    2.238679846244   -6.361602961006    0.204275649376
 C    2.505003372113   -4.472851068152    1.145055974832
 H    3.571926305309   -4.325241147607    0.996441338690
