20

 C    0.029271493533    4.301118577420   -0.509069709547
 H    0.757071493533    5.086508577420   -0.321979709547
 C    0.096241493533    3.108418577420   -1.222559709547
 H    0.955321493533    2.709728577420   -1.759859709547
 N   -1.281128506467    4.385408577420   -0.084789709547
 H   -1.699648506467    5.188458577420    0.383210290453
 C   -1.965978506467    3.299708577420   -0.557569709547
 H   -3.032898506467    3.152108577420   -0.408959709547
 N   -1.145898506467    2.493938577420   -1.248909709547
 K   -0.282728506467    1.940538577420    1.373030290453
 K   -0.703768506467    0.206478577420   -2.448209709547
 N    1.710847398844   -3.723494328855    1.864643492576
 C    0.468705896042   -4.337970075181    1.838297921892
 H   -0.390367557857   -3.939286746424    2.375589538314
 C    0.535675697438   -5.530672310725    1.124798309678
 H   -0.192116487636   -6.316065646389    0.937711794823
 N    1.846075647141   -5.614964842530    0.700523936896
 H    2.264599688420   -6.418015006392    0.232525556886
 C    2.530923214288   -4.529263113539    1.173305882342
 H    3.597846147485   -4.381653192993    1.024691246200
