20

 C   -0.006973940560    4.380003281241   -0.548573428507
 H    0.720826059440    5.165393281241   -0.361483428507
 C    0.059996059440    3.187303281241   -1.262063428507
 H    0.919076059440    2.788613281241   -1.799363428507
 N   -1.317373940560    4.464293281241   -0.124293428507
 H   -1.735893940560    5.267343281241    0.343706571493
 C   -2.002223940560    3.378593281241   -0.597073428507
 H   -3.069143940560    3.230993281241   -0.448463428507
 N   -1.182143940560    2.572823281241   -1.288413428507
 K   -0.318973940560    2.019423281241    1.333526571493
 K   -0.740013940560    0.285363281241   -2.487713428507
 N    1.788606925370   -3.892730465014    1.949393215105
 C    0.546465422569   -4.507206211340    1.923047644421
 H   -0.312608031330   -4.108522882583    2.460339260844
 C    0.613435223965   -5.699908446884    1.209548032208
 H   -0.114356961109   -6.485301782548    1.022461517352
 N    1.923835173668   -5.784200978688    0.785273659426
 H    2.342359214947   -6.587251142551    0.317275279415
 C    2.608682740815   -4.698499249698    1.258055604871
 H    3.675605674011   -4.550889329152    1.109440968730
