20

 C   -0.019055751924    4.406298182515   -0.561741334827
 H    0.708744248076    5.191688182515   -0.374651334827
 C    0.047914248076    3.213598182515   -1.275231334827
 H    0.906994248076    2.814908182515   -1.812531334827
 N   -1.329455751924    4.490588182515   -0.137461334827
 H   -1.747975751924    5.293638182515    0.330538665173
 C   -2.014305751924    3.404888182515   -0.610241334827
 H   -3.081225751924    3.257288182515   -0.461631334827
 N   -1.194225751924    2.599118182515   -1.301581334827
 K   -0.331055751924    2.045718182515    1.320358665173
 K   -0.752095751924    0.311658182515   -2.500881334827
 N    1.814526767546   -3.949142510400    1.977643122615
 C    0.572385264744   -4.563618256726    1.951297551931
 H   -0.286688189155   -4.164934927970    2.488589168354
 C    0.639355066140   -5.756320492270    1.237797939717
 H   -0.088437118934   -6.541713827934    1.050711424862
 N    1.949755015843   -5.840613024075    0.813523566935
 H    2.368279057122   -6.643663187937    0.345525186925
 C    2.634602582990   -4.754911295084    1.286305512381
 H    3.701525516187   -4.607301374539    1.137690876239
