20

 C   -0.043219374653    4.458887985062   -0.588077147466
 H    0.684580625347    5.244277985062   -0.400987147466
 C    0.023750625347    3.266187985062   -1.301567147466
 H    0.882830625347    2.867497985062   -1.838867147466
 N   -1.353619374653    4.543177985062   -0.163797147466
 H   -1.772139374653    5.346227985062    0.304202852534
 C   -2.038469374653    3.457477985062   -0.636577147466
 H   -3.105389374653    3.309877985062   -0.487967147466
 N   -1.218389374653    2.651707985062   -1.327917147466
 K   -0.355219374653    2.098307985062    1.294022852534
 K   -0.776259374653    0.364247985062   -2.527217147466
 N    1.866366451897   -4.061966601173    2.034142937635
 C    0.624224949095   -4.676442347499    2.007797366951
 H   -0.234848504804   -4.277759018742    2.545088983373
 C    0.691194750491   -5.869144583043    1.294297754737
 H   -0.036597434583   -6.654537918706    1.107211239882
 N    2.001594700194   -5.953437114847    0.870023381955
 H    2.420118741473   -6.756487278710    0.402025001945
 C    2.686442267341   -4.867735385857    1.342805327401
 H    3.753365200538   -4.720125465311    1.194190691259
