20

 C   -0.127792054203    4.642952293977   -0.680252491706
 H    0.600007945797    5.428342293977   -0.493162491706
 C   -0.060822054203    3.450252293977   -1.393742491706
 H    0.798257945797    3.051562293977   -1.931042491706
 N   -1.438192054203    4.727242293977   -0.255972491706
 H   -1.856712054203    5.530292293977    0.212027508294
 C   -2.123042054203    3.641542293977   -0.728752491706
 H   -3.189962054203    3.493942293977   -0.580142491706
 N   -1.302962054203    2.835772293977   -1.420092491706
 K   -0.439792054203    2.282372293977    1.201847508294
 K   -0.860832054203    0.548312293977   -2.619392491706
 N    2.047805347125   -4.456850918877    2.231892290204
 C    0.805663844324   -5.071326665203    2.205546719520
 H   -0.053409609575   -4.672643336447    2.742838335942
 C    0.872633645720   -6.264028900747    1.492047107306
 H    0.144841460646   -7.049422236411    1.304960592451
 N    2.183033595423   -6.348321432552    1.067772734524
 H    2.601557636702   -7.151371596414    0.599774354514
 C    2.867881162570   -5.262619703561    1.540554679970
 H    3.934804095767   -5.115009783015    1.391940043828
