20

 C   -0.139873865567    4.669247195251   -0.693420398025
 H    0.587926134433    5.454637195251   -0.506330398025
 C   -0.072903865567    3.476547195251   -1.406910398025
 H    0.786176134433    3.077857195251   -1.944210398025
 N   -1.450273865567    4.753537195251   -0.269140398025
 H   -1.868793865567    5.556587195251    0.198859601975
 C   -2.135123865567    3.667837195251   -0.741920398025
 H   -3.202043865567    3.520237195251   -0.593310398025
 N   -1.315043865567    2.862067195251   -1.433260398025
 K   -0.451873865567    2.308667195251    1.188679601975
 K   -0.872913865567    0.574607195251   -2.632560398025
 N    2.073725189301   -4.513262964263    2.260142197713
 C    0.831583686499   -5.127738710589    2.233796627029
 H   -0.027489767400   -4.729055381833    2.771088243452
 C    0.898553487895   -6.320440946133    1.520297014816
 H    0.170761302822   -7.105834281797    1.333210499960
 N    2.208953437599   -6.404733477938    1.096022642034
 H    2.627477478877   -7.207783641800    0.628024262024
 C    2.893801004745   -5.319031748947    1.568804587479
 H    3.960723937942   -5.171421828402    1.420189951338
