20

 C   -0.176119299660    4.748131899072   -0.732924116985
 H    0.551680700340    5.533521899072   -0.545834116985
 C   -0.109149299660    3.555431899072   -1.446414116985
 H    0.749930700340    3.156741899072   -1.983714116985
 N   -1.486519299660    4.832421899072   -0.308644116985
 H   -1.905039299660    5.635471899072    0.159355883015
 C   -2.171369299660    3.746721899072   -0.781424116985
 H   -3.238289299660    3.599121899072   -0.632814116985
 N   -1.351289299660    2.940951899072   -1.472764116985
 K   -0.488119299660    2.387551899072    1.149175883015
 K   -0.909159299660    0.653491899072   -2.672064116985
 N    2.151484715828   -4.682499100422    2.344891920243
 C    0.909343213026   -5.296974846748    2.318546349559
 H    0.050269759127   -4.898291517992    2.855837965981
 C    0.976313014422   -6.489677082292    1.605046737345
 H    0.248520829348   -7.275070417956    1.417960222490
 N    2.286712964125   -6.573969614097    1.180772364563
 H    2.705237005404   -7.377019777959    0.712773984553
 C    2.971560531272   -5.488267885106    1.653554310009
 H    4.038483464469   -5.340657964561    1.504939673867
