20

 C   -0.200282922389    4.800721701619   -0.759259929625
 H    0.527517077611    5.586111701619   -0.572169929625
 C   -0.133312922389    3.608021701619   -1.472749929625
 H    0.725767077611    3.209331701619   -2.010049929625
 N   -1.510682922389    4.885011701619   -0.334979929625
 H   -1.929202922389    5.688061701619    0.133020070375
 C   -2.195532922389    3.799311701619   -0.807759929625
 H   -3.262452922389    3.651711701619   -0.659149929625
 N   -1.375452922389    2.993541701619   -1.499099929625
 K   -0.512282922389    2.440141701619    1.122840070375
 K   -0.933322922389    0.706081701619   -2.698399929625
 N    2.203324400179   -4.795323191195    2.401391735263
 C    0.961182897377   -5.409798937521    2.375046164579
 H    0.102109443478   -5.011115608764    2.912337781001
 C    1.028152698773   -6.602501173065    1.661546552365
 H    0.300360513699   -7.387894508729    1.474460037510
 N    2.338552648476   -6.686793704869    1.237272179583
 H    2.757076689755   -7.489843868732    0.769273799573
 C    3.023400215623   -5.601091975879    1.710054125029
 H    4.090323148820   -5.453482055333    1.561439488887
