20

 C   -0.296937413303    5.011080911808   -0.864603180184
 H    0.430862586697    5.796470911808   -0.677513180184
 C   -0.229967413303    3.818380911808   -1.578093180184
 H    0.629112586697    3.419690911808   -2.115393180184
 N   -1.607337413303    5.095370911808   -0.440323180184
 H   -2.025857413303    5.898420911808    0.027676819816
 C   -2.292187413303    4.009670911808   -0.913103180184
 H   -3.359107413303    3.862070911808   -0.764493180184
 N   -1.472107413303    3.203900911808   -1.604443180184
 K   -0.608937413303    2.650500911808    1.017496819816
 K   -1.029977413303    0.916440911808   -2.803743180184
 N    2.410683137583   -5.246619554285    2.627390995341
 C    1.168541634781   -5.861095300611    2.601045424657
 H    0.309468180882   -5.462411971855    3.138337041080
 C    1.235511436177   -7.053797536155    1.887545812444
 H    0.507719251103   -7.839190871819    1.700459297588
 N    2.545911385880   -7.138090067960    1.463271439662
 H    2.964435427159   -7.941140231822    0.995273059651
 C    3.230758953027   -6.052388338969    1.936053385107
 H    4.297681886224   -5.904778418424    1.787438748966
