20

 C   -0.333182847396    5.089965615628   -0.904106899143
 H    0.394617152604    5.875355615628   -0.717016899143
 C   -0.266212847396    3.897265615628   -1.617596899143
 H    0.592867152604    3.498575615628   -2.154896899143
 N   -1.643582847396    5.174255615628   -0.479826899143
 H   -2.062102847396    5.977305615628   -0.011826899143
 C   -2.328432847396    4.088555615628   -0.952606899143
 H   -3.395352847396    3.940955615628   -0.803996899143
 N   -1.508352847396    3.282785615628   -1.643946899143
 K   -0.645182847396    2.729385615628    0.977993100857
 K   -1.066222847396    0.995325615628   -2.843246899143
 N    2.488442664109   -5.415855690444    2.712140717871
 C    1.246301161308   -6.030331436770    2.685795147187
 H    0.387227707409   -5.631648108014    3.223086763609
 C    1.313270962704   -7.223033672314    1.972295534973
 H    0.585478777630   -8.008427007978    1.785209020118
 N    2.623670912407   -7.307326204119    1.548021162191
 H    3.042194953686   -8.110376367981    1.080022782181
 C    3.308518479554   -6.221624475128    2.020803107637
 H    4.375441412750   -6.074014554583    1.872188471495
