20

 C   -0.393591904218    5.221440121996   -0.969946430743
 H    0.334208095782    6.006830121996   -0.782856430743
 C   -0.326621904218    4.028740121996   -1.683436430743
 H    0.532458095782    3.630050121996   -2.220736430743
 N   -1.703991904218    5.305730121996   -0.545666430743
 H   -2.122511904218    6.108780121996   -0.077666430743
 C   -2.388841904218    4.220030121996   -1.018446430743
 H   -3.455761904218    4.072430121996   -0.869836430743
 N   -1.568761904218    3.414260121996   -1.709786430743
 K   -0.705591904218    2.860860121996    0.912153569257
 K   -1.126631904218    1.126800121996   -2.909086430743
 N    2.618041874987   -5.697915917376    2.853390255420
 C    1.375900372185   -6.312391663702    2.827044684736
 H    0.516826918286   -5.913708334945    3.364336301158
 C    1.442870173581   -7.505093899246    2.113545072522
 H    0.715077988508   -8.290487234910    1.926458557667
 N    2.753270123285   -7.589386431051    1.689270699740
 H    3.171794164563   -8.392436594913    1.221272319730
 C    3.438117690431   -6.503684702060    2.162052645186
 H    4.505040623628   -6.356074781514    2.013438009044
