20

 C   -0.454000961040    5.352914628364   -1.035785962342
 H    0.273799038960    6.138304628364   -0.848695962342
 C   -0.387030961040    4.160214628364   -1.749275962342
 H    0.472049038960    3.761524628364   -2.286575962342
 N   -1.764400961040    5.437204628364   -0.611505962342
 H   -2.182920961040    6.240254628364   -0.143505962342
 C   -2.449250961040    4.351504628364   -1.084285962342
 H   -3.516170961040    4.203904628364   -0.935675962342
 N   -1.629170961040    3.545734628364   -1.775625962342
 K   -0.766000961040    2.992334628364    0.846314037658
 K   -1.187040961040    1.258274628364   -2.974925962342
 N    2.747641085865   -5.979976144307    2.994639792969
 C    1.505499583063   -6.594451890633    2.968294222285
 H    0.646426129164   -6.195768561877    3.505585838708
 C    1.572469384459   -7.787154126177    2.254794610071
 H    0.844677199385   -8.572547461841    2.067708095216
 N    2.882869334162   -7.871446657982    1.830520237289
 H    3.301393375441   -8.674496821845    1.362521857279
 C    3.567716901309   -6.785744928991    2.303302182735
 H    4.634639834506   -6.638135008446    2.154687546593
