8

 C    0.954136401968   -1.355353117123    0.000000000000
 H    1.989636401968   -1.731441117123    0.000000000000
 H    0.420936401968   -1.736056117123    0.888337000000
 H    0.420936401968   -1.736056117123   -0.888337000000
 C    0.912370401968    0.200730882877    0.000000000000
 O   -0.254825598032    0.706953882877    0.000000000000
 O    2.036441401968    0.796148882877    0.000000000000
 K   -1.379451418245   -0.126842713729    0.000000000000
