8

 C    0.986082372907   -1.331668402291    0.000000000000
 H    2.021582372907   -1.707756402291    0.000000000000
 H    0.452882372907   -1.712371402291    0.888337000000
 H    0.452882372907   -1.712371402291   -0.888337000000
 C    0.944316372907    0.224415597709    0.000000000000
 O   -0.222879627093    0.730638597709    0.000000000000
 O    2.068387372907    0.819833597709    0.000000000000
 K   -1.427835863036   -0.162714898654    0.000000000000
