8

 C    1.049974314785   -1.284298972628    0.000000000000
 H    2.085474314785   -1.660386972628    0.000000000000
 H    0.516774314785   -1.665001972628    0.888337000000
 H    0.516774314785   -1.665001972628   -0.888337000000
 C    1.008208314785    0.271785027372    0.000000000000
 O   -0.158987685215    0.778008027372    0.000000000000
 O    2.132279314785    0.867203027372    0.000000000000
 K   -1.524604752617   -0.234459268506    0.000000000000
