8

 C    1.337488053235   -1.071136539142    0.000000000000
 H    2.372988053235   -1.447224539142    0.000000000000
 H    0.804288053235   -1.451839539142    0.888337000000
 H    0.804288053235   -1.451839539142   -0.888337000000
 C    1.295722053235    0.484947460858    0.000000000000
 O    0.128526053235    0.991170460858    0.000000000000
 O    2.419793053235    1.080365460858    0.000000000000
 K   -1.960064755731   -0.557308932838    0.000000000000
