8

 C    1.401379995113   -1.023767109479    0.000000000000
 H    2.436879995113   -1.399855109479    0.000000000000
 H    0.868179995113   -1.404470109479    0.888337000000
 H    0.868179995113   -1.404470109479   -0.888337000000
 C    1.359613995113    0.532316890521    0.000000000000
 O    0.192417995113    1.038539890521    0.000000000000
 O    2.483684995113    1.127734890521    0.000000000000
 K   -2.056833645312   -0.629053302690    0.000000000000
