8

 C    1.433325966052   -1.000082394647    0.000000000000
 H    2.468825966052   -1.376170394647    0.000000000000
 H    0.900125966052   -1.380785394647    0.888337000000
 H    0.900125966052   -1.380785394647   -0.888337000000
 C    1.391559966052    0.556001605353    0.000000000000
 O    0.224363966052    1.062224605353    0.000000000000
 O    2.515630966052    1.151419605353    0.000000000000
 K   -2.105218090103   -0.664925487615    0.000000000000
