8

 C    1.593055820747   -0.881658820488    0.000000000000
 H    2.628555820747   -1.257746820488    0.000000000000
 H    1.059855820747   -1.262361820488    0.888337000000
 H    1.059855820747   -1.262361820488   -0.888337000000
 C    1.551289820747    0.674425179512    0.000000000000
 O    0.384093820747    1.180648179512    0.000000000000
 O    2.675360820747    1.269843179512    0.000000000000
 K   -2.347140314055   -0.844286412244    0.000000000000
