8

 C    1.752785675442   -0.763235246329    0.000000000000
 H    2.788285675442   -1.139323246329    0.000000000000
 H    1.219585675442   -1.143938246329    0.888337000000
 H    1.219585675442   -1.143938246329   -0.888337000000
 C    1.711019675442    0.792848753671    0.000000000000
 O    0.543823675442    1.299071753671    0.000000000000
 O    2.835090675442    1.388266753671    0.000000000000
 K   -2.589062538008   -1.023647336873    0.000000000000
