8

 C    1.848623588259   -0.692181101834    0.000000000000
 H    2.884123588259   -1.068269101834    0.000000000000
 H    1.315423588259   -1.072884101834    0.888337000000
 H    1.315423588259   -1.072884101834   -0.888337000000
 C    1.806857588259    0.863902898166    0.000000000000
 O    0.639661588259    1.370125898166    0.000000000000
 O    2.930928588259    1.459320898166    0.000000000000
 K   -2.734215872379   -1.131263891650    0.000000000000
