8

 C    1.880569559198   -0.668496387002    0.000000000000
 H    2.916069559198   -1.044584387002    0.000000000000
 H    1.347369559198   -1.049199387002    0.888337000000
 H    1.347369559198   -1.049199387002   -0.888337000000
 C    1.838803559198    0.887587612998    0.000000000000
 O    0.671607559198    1.393810612998    0.000000000000
 O    2.962874559198    1.483005612998    0.000000000000
 K   -2.782600317170   -1.167136076576    0.000000000000
