8

 C    1.912515530137   -0.644811672170    0.000000000000
 H    2.948015530137   -1.020899672170    0.000000000000
 H    1.379315530137   -1.025514672170    0.888337000000
 H    1.379315530137   -1.025514672170   -0.888337000000
 C    1.870749530137    0.911272327830    0.000000000000
 O    0.703553530137    1.417495327830    0.000000000000
 O    2.994820530137    1.506690327830    0.000000000000
 K   -2.830984761960   -1.203008261502    0.000000000000
