8

 C    1.944461501076   -0.621126957339    0.000000000000
 H    2.979961501076   -0.997214957339    0.000000000000
 H    1.411261501076   -1.001829957339    0.888337000000
 H    1.411261501076   -1.001829957339   -0.888337000000
 C    1.902695501076    0.934957042661    0.000000000000
 O    0.735499501076    1.441180042661    0.000000000000
 O    3.026766501076    1.530375042661    0.000000000000
 K   -2.879369206751   -1.238880446428    0.000000000000
