8

 C    2.040299413893   -0.550072812843    0.000000000000
 H    3.075799413893   -0.926160812843    0.000000000000
 H    1.507099413893   -0.930775812843    0.888337000000
 H    1.507099413893   -0.930775812843   -0.888337000000
 C    1.998533413893    1.006011187157    0.000000000000
 O    0.831337413893    1.512234187157    0.000000000000
 O    3.122604413893    1.601429187157    0.000000000000
 K   -3.024522541122   -1.346497001205    0.000000000000
