8

 C    2.072245384832   -0.526388098012    0.000000000000
 H    3.107745384832   -0.902476098012    0.000000000000
 H    1.539045384832   -0.907091098012    0.888337000000
 H    1.539045384832   -0.907091098012   -0.888337000000
 C    2.030479384832    1.029695901988    0.000000000000
 O    0.863283384832    1.535918901988    0.000000000000
 O    3.154550384832    1.625113901988    0.000000000000
 K   -3.072906985913   -1.382369186131    0.000000000000
