8

 C    2.168083297648   -0.455333953516    0.000000000000
 H    3.203583297648   -0.831421953516    0.000000000000
 H    1.634883297648   -0.836036953516    0.888337000000
 H    1.634883297648   -0.836036953516   -0.888337000000
 C    2.126317297648    1.100750046484    0.000000000000
 O    0.959121297648    1.606973046484    0.000000000000
 O    3.250388297648    1.696168046484    0.000000000000
 K   -3.218060320284   -1.489985740908    0.000000000000
