8

 C    2.231975239526   -0.407964523853    0.000000000000
 H    3.267475239526   -0.784052523853    0.000000000000
 H    1.698775239526   -0.788667523853    0.888337000000
 H    1.698775239526   -0.788667523853   -0.888337000000
 C    2.190209239526    1.148119476147    0.000000000000
 O    1.023013239526    1.654342476147    0.000000000000
 O    3.314280239526    1.743537476147    0.000000000000
 K   -3.314829209865   -1.561730110760    0.000000000000
