8

 C    2.327813152343   -0.336910379358    0.000000000000
 H    3.363313152343   -0.712998379358    0.000000000000
 H    1.794613152343   -0.717613379358    0.888337000000
 H    1.794613152343   -0.717613379358   -0.888337000000
 C    2.286047152343    1.219173620642    0.000000000000
 O    1.118851152343    1.725396620642    0.000000000000
 O    3.410118152343    1.814591620642    0.000000000000
 K   -3.459982544237   -1.669346665537    0.000000000000
