8

 C    2.359759123282   -0.313225664526    0.000000000000
 H    3.395259123282   -0.689313664526    0.000000000000
 H    1.826559123282   -0.693928664526    0.888337000000
 H    1.826559123282   -0.693928664526   -0.888337000000
 C    2.317993123282    1.242858335474    0.000000000000
 O    1.150797123282    1.749081335474    0.000000000000
 O    3.442064123282    1.838276335474    0.000000000000
 K   -3.508366989027   -1.705218850463    0.000000000000
