8

 C    2.455597036099   -0.242171520031    0.000000000000
 H    3.491097036099   -0.618259520031    0.000000000000
 H    1.922397036099   -0.622874520031    0.888337000000
 H    1.922397036099   -0.622874520031   -0.888337000000
 C    2.413831036099    1.313912479969    0.000000000000
 O    1.246635036099    1.820135479969    0.000000000000
 O    3.537902036099    1.909330479969    0.000000000000
 K   -3.653520323399   -1.812835405240    0.000000000000
