8

 C    2.519488977977   -0.194802090367    0.000000000000
 H    3.554988977977   -0.570890090367    0.000000000000
 H    1.986288977977   -0.575505090367    0.888337000000
 H    1.986288977977   -0.575505090367   -0.888337000000
 C    2.477722977977    1.361281909633    0.000000000000
 O    1.310526977977    1.867504909633    0.000000000000
 O    3.601793977977    1.956699909633    0.000000000000
 K   -3.750289212980   -1.884579775092    0.000000000000
