8

 C    2.711164803611   -0.052693801376    0.000000000000
 H    3.746664803611   -0.428781801376    0.000000000000
 H    2.177964803611   -0.433396801376    0.888337000000
 H    2.177964803611   -0.433396801376   -0.888337000000
 C    2.669398803611    1.503390198624    0.000000000000
 O    1.502202803611    2.009613198624    0.000000000000
 O    3.793469803611    2.098808198624    0.000000000000
 K   -4.040595881723   -2.099812884646    0.000000000000
