8

 C    2.807002716428    0.018360343119    0.000000000000
 H    3.842502716428   -0.357727656881    0.000000000000
 H    2.273802716428   -0.362342656881    0.888337000000
 H    2.273802716428   -0.362342656881   -0.888337000000
 C    2.765236716428    1.574444343119    0.000000000000
 O    1.598040716428    2.080667343119    0.000000000000
 O    3.889307716428    2.169862343119    0.000000000000
 K   -4.185749216095   -2.207429439424    0.000000000000
