8

 C    2.838948687367    0.042045057951    0.000000000000
 H    3.874448687367   -0.334042942049    0.000000000000
 H    2.305748687367   -0.338657942049    0.888337000000
 H    2.305748687367   -0.338657942049   -0.888337000000
 C    2.797182687367    1.598129057951    0.000000000000
 O    1.629986687367    2.104352057951    0.000000000000
 O    3.921253687367    2.193547057951    0.000000000000
 K   -4.234133660885   -2.243301624350    0.000000000000
