8

 C    2.870894658306    0.065729772782    0.000000000000
 H    3.906394658306   -0.310358227218    0.000000000000
 H    2.337694658306   -0.314973227218    0.888337000000
 H    2.337694658306   -0.314973227218   -0.888337000000
 C    2.829128658306    1.621813772782    0.000000000000
 O    1.661932658306    2.128036772782    0.000000000000
 O    3.953199658306    2.217231772782    0.000000000000
 K   -4.282518105676   -2.279173809275    0.000000000000
