8

 C    2.934786600184    0.113099202446    0.000000000000
 H    3.970286600184   -0.262988797554    0.000000000000
 H    2.401586600184   -0.267603797554    0.888337000000
 H    2.401586600184   -0.267603797554   -0.888337000000
 C    2.893020600184    1.669183202446    0.000000000000
 O    1.725824600184    2.175406202446    0.000000000000
 O    4.017091600184    2.264601202446    0.000000000000
 K   -4.379286995257   -2.350918179127    0.000000000000
