8

 C    3.190354367695    0.302576921100    0.000000000000
 H    4.225854367695   -0.073511078900    0.000000000000
 H    2.657154367695   -0.078126078900    0.888337000000
 H    2.657154367695   -0.078126078900   -0.888337000000
 C    3.148588367695    1.858660921100    0.000000000000
 O    1.981392367695    2.364883921100    0.000000000000
 O    4.272659367695    2.454078921100    0.000000000000
 K   -4.766362553581   -2.637895658533    0.000000000000
