8

 C    3.286192280512    0.373631065595    0.000000000000
 H    4.321692280512   -0.002456934405    0.000000000000
 H    2.752992280512   -0.007071934405    0.888337000000
 H    2.752992280512   -0.007071934405   -0.888337000000
 C    3.244426280512    1.929715065595    0.000000000000
 O    2.077230280512    2.435938065595    0.000000000000
 O    4.368497280512    2.525133065595    0.000000000000
 K   -4.911515887952   -2.745512213310    0.000000000000
