8

 C    3.318138251451    0.397315780427    0.000000000000
 H    4.353638251451    0.021227780427    0.000000000000
 H    2.784938251451    0.016612780427    0.888337000000
 H    2.784938251451    0.016612780427   -0.888337000000
 C    3.276372251451    1.953399780427    0.000000000000
 O    2.109176251451    2.459622780427    0.000000000000
 O    4.400443251451    2.548817780427    0.000000000000
 K   -4.959900332743   -2.781384398236    0.000000000000
