8

 C    3.413976164268    0.468369924922    0.000000000000
 H    4.449476164268    0.092281924922    0.000000000000
 H    2.880776164268    0.087666924922    0.888337000000
 H    2.880776164268    0.087666924922   -0.888337000000
 C    3.372210164268    2.024453924922    0.000000000000
 O    2.205014164268    2.530676924922    0.000000000000
 O    4.496281164268    2.619871924922    0.000000000000
 K   -5.105053667114   -2.889000953014    0.000000000000
