8

 C    3.573706018963    0.586793499081    0.000000000000
 H    4.609206018963    0.210705499081    0.000000000000
 H    3.040506018963    0.206090499081    0.888337000000
 H    3.040506018963    0.206090499081   -0.888337000000
 C    3.531940018963    2.142877499081    0.000000000000
 O    2.364744018963    2.649100499081    0.000000000000
 O    4.656011018963    2.738295499081    0.000000000000
 K   -5.346975891067   -3.068361877642    0.000000000000
