14

 P    0.192096978205   -0.249260163649    0.118685063579
 O   -0.394903021795    0.800739836351    1.073685063579
 O   -0.073903021795   -0.201260163649   -1.393314936421
 O    1.855096978205   -0.423260163649    0.405685063579
 O   -0.122903021795   -1.807260163649    0.710685063579
 C    2.592096978205    0.741739836351    0.028685063579
 H    2.261096978205    1.624739836351    0.604685063579
 H    2.477096978205    0.952739836351   -1.049314936421
 H    3.652096978205    0.539739836351    0.248685063579
 C   -1.513903021795   -2.130260163649    0.660685063579
 H   -1.891903021795   -2.103260163649   -0.377314936421
 H   -2.106903021795   -1.431260163649    1.276685063579
 H   -1.623903021795   -3.150260163649    1.060685063579
RB   -0.493280306225    0.636738459428   -0.311738469575
