14

 P    0.261407650529   -0.338859223375    0.162212833092
 O   -0.325592349471    0.711140776625    1.117212833092
 O   -0.004592349471   -0.290859223375   -1.349787166908
 O    1.924407650529   -0.512859223375    0.449212833092
 O   -0.053592349471   -1.896859223375    0.754212833092
 C    2.661407650529    0.652140776625    0.072212833092
 H    2.330407650529    1.535140776625    0.648212833092
 H    2.546407650529    0.863140776625   -1.005787166908
 H    3.721407650529    0.450140776625    0.292212833092
 C   -1.444592349471   -2.219859223375    0.704212833092
 H   -1.822592349471   -2.192859223375   -0.333787166908
 H   -2.037592349471   -1.520859223375    1.320212833092
 H   -1.554592349471   -3.239859223375    1.104212833092
RB   -0.595313955010    0.768639055471   -0.375816583349
