14

 P    0.284511207970   -0.368725576618    0.176722089597
 O   -0.302488792030    0.681274423382    1.131722089597
 O    0.018511207970   -0.320725576618   -1.335277910403
 O    1.947511207970   -0.542725576618    0.463722089597
 O   -0.030488792030   -1.926725576618    0.768722089597
 C    2.684511207970    0.622274423382    0.086722089597
 H    2.353511207970    1.505274423382    0.662722089597
 H    2.569511207970    0.833274423382   -0.991277910403
 H    3.744511207970    0.420274423382    0.306722089597
 C   -1.421488792030   -2.249725576618    0.718722089597
 H   -1.799488792030   -2.222725576618   -0.319277910403
 H   -2.014488792030   -1.550725576618    1.334722089597
 H   -1.531488792030   -3.269725576618    1.118722089597
RB   -0.629325171271    0.812605920819   -0.397175954608
