14

 P    0.330718322852   -0.428458283102    0.205740602606
 O   -0.256281677148    0.621541716898    1.160740602606
 O    0.064718322852   -0.380458283102   -1.306259397394
 O    1.993718322852   -0.602458283102    0.492740602606
 O    0.015718322852   -1.986458283102    0.797740602606
 C    2.730718322852    0.562541716898    0.115740602606
 H    2.399718322852    1.445541716898    0.691740602606
 H    2.615718322852    0.773541716898   -0.962259397394
 H    3.790718322852    0.360541716898    0.335740602606
 C   -1.375281677148   -2.309458283102    0.747740602606
 H   -1.753281677148   -2.282458283102   -0.290259397394
 H   -1.968281677148   -1.610458283102    1.363740602606
 H   -1.485281677148   -3.329458283102    1.147740602606
RB   -0.697347603794    0.900539651514   -0.439894697124
