14

 P    0.353821880293   -0.458324636344    0.220249859110
 O   -0.233178119707    0.591675363656    1.175249859110
 O    0.087821880293   -0.410324636344   -1.291750140890
 O    2.016821880293   -0.632324636344    0.507249859110
 O    0.038821880293   -2.016324636344    0.812249859110
 C    2.753821880293    0.532675363656    0.130249859110
 H    2.422821880293    1.415675363656    0.706249859110
 H    2.638821880293    0.743675363656   -0.947750140890
 H    3.813821880293    0.330675363656    0.350249859110
 C   -1.352178119707   -2.339324636344    0.762249859110
 H   -1.730178119707   -2.312324636344   -0.275750140890
 H   -1.945178119707   -1.640324636344    1.378249859110
 H   -1.462178119707   -3.359324636344    1.162249859110
RB   -0.731358820056    0.944506516861   -0.461254068382
