14

 P    0.400028995175   -0.518057342828    0.249268372119
 O   -0.186971004825    0.531942657172    1.204268372119
 O    0.134028995175   -0.470057342828   -1.262731627881
 O    2.063028995175   -0.692057342828    0.536268372119
 O    0.085028995175   -2.076057342828    0.841268372119
 C    2.800028995175    0.472942657172    0.159268372119
 H    2.469028995175    1.355942657172    0.735268372119
 H    2.685028995175    0.683942657172   -0.918731627881
 H    3.860028995175    0.270942657172    0.379268372119
 C   -1.305971004825   -2.399057342828    0.791268372119
 H   -1.683971004825   -2.372057342828   -0.246731627881
 H   -1.898971004825   -1.700057342828    1.407268372119
 H   -1.415971004825   -3.419057342828    1.191268372119
RB   -0.799381252579    1.032440247557   -0.503972810899
