14

 P    0.446236110057   -0.577790049313    0.278286885128
 O   -0.140763889943    0.472209950687    1.233286885128
 O    0.180236110057   -0.529790049313   -1.233713114872
 O    2.109236110057   -0.751790049313    0.565286885128
 O    0.131236110057   -2.135790049313    0.870286885128
 C    2.846236110057    0.413209950687    0.188286885128
 H    2.515236110057    1.296209950687    0.764286885128
 H    2.731236110057    0.624209950687   -0.889713114872
 H    3.906236110057    0.211209950687    0.408286885128
 C   -1.259763889943   -2.458790049313    0.820286885128
 H   -1.637763889943   -2.431790049313   -0.217713114872
 H   -1.852763889943   -1.759790049313    1.436286885128
 H   -1.369763889943   -3.478790049313    1.220286885128
RB   -0.867403685102    1.120373978252   -0.546691553415
