14

 P    0.538650339821   -0.697255462281    0.336323911146
 O   -0.048349660179    0.352744537719    1.291323911146
 O    0.272650339821   -0.649255462281   -1.175676088854
 O    2.201650339821   -0.871255462281    0.623323911146
 O    0.223650339821   -2.255255462281    0.928323911146
 C    2.938650339821    0.293744537719    0.246323911146
 H    2.607650339821    1.176744537719    0.822323911146
 H    2.823650339821    0.504744537719   -0.831676088854
 H    3.998650339821    0.091744537719    0.466323911146
 C   -1.167349660179   -2.578255462281    0.878323911146
 H   -1.545349660179   -2.551255462281   -0.159676088854
 H   -1.760349660179   -1.879255462281    1.494323911146
 H   -1.277349660179   -3.598255462281    1.278323911146
RB   -1.003448550148    1.296241439642   -0.632129038448
