14

 P    0.561753897262   -0.727121815523    0.350833167651
 O   -0.025246102738    0.322878184477    1.305833167651
 O    0.295753897262   -0.679121815523   -1.161166832349
 O    2.224753897262   -0.901121815523    0.637833167651
 O    0.246753897262   -2.285121815523    0.942833167651
 C    2.961753897262    0.263878184477    0.260833167651
 H    2.630753897262    1.146878184477    0.836833167651
 H    2.846753897262    0.474878184477   -0.817166832349
 H    4.021753897262    0.061878184477    0.480833167651
 C   -1.144246102738   -2.608121815523    0.892833167651
 H   -1.522246102738   -2.581121815523   -0.145166832349
 H   -1.737246102738   -1.909121815523    1.508833167651
 H   -1.254246102738   -3.628121815523    1.292833167651
RB   -1.037459766409    1.340208304990   -0.653488409706
