14

 P    0.700375241908   -0.906319934976    0.437888706678
 O    0.113375241908    0.143680065024    1.392888706678
 O    0.434375241908   -0.858319934976   -1.074111293322
 O    2.363375241908   -1.080319934976    0.724888706678
 O    0.385375241908   -2.464319934976    1.029888706678
 C    3.100375241908    0.084680065024    0.347888706678
 H    2.769375241908    0.967680065024    0.923888706678
 H    2.985375241908    0.295680065024   -0.730111293322
 H    4.160375241908   -0.117319934976    0.567888706678
 C   -1.005624758092   -2.787319934976    0.979888706678
 H   -1.383624758092   -2.760319934976   -0.058111293322
 H   -1.598624758092   -2.088319934976    1.595888706678
 H   -1.115624758092   -3.807319934976    1.379888706678
RB   -1.241527063978    1.604009497076   -0.781644637256
