14

 P    0.977617931201   -1.264716173882    0.611999784732
 O    0.390617931201   -0.214716173882    1.566999784732
 O    0.711617931201   -1.216716173882   -0.900000215268
 O    2.640617931201   -1.438716173882    0.898999784732
 O    0.662617931201   -2.822716173882    1.203999784732
 C    3.377617931201   -0.273716173882    0.521999784732
 H    3.046617931201    0.609283826118    1.097999784732
 H    3.262617931201   -0.062716173882   -0.556000215268
 H    4.437617931201   -0.475716173882    0.741999784732
 C   -0.728382068799   -3.145716173882    1.153999784732
 H   -1.106382068799   -3.118716173882    0.115999784732
 H   -1.321382068799   -2.446716173882    1.769999784732
 H   -0.838382068799   -4.165716173882    1.553999784732
RB   -1.649661659116    2.131611881247   -1.037957092355
