14

 P    1.000721488642   -1.294582527124    0.626509041237
 O    0.413721488642   -0.244582527124    1.581509041237
 O    0.734721488642   -1.246582527124   -0.885490958763
 O    2.663721488642   -1.468582527124    0.913509041237
 O    0.685721488642   -2.852582527124    1.218509041237
 C    3.400721488642   -0.303582527124    0.536509041237
 H    3.069721488642    0.579417472876    1.112509041237
 H    3.285721488642   -0.092582527124   -0.541490958763
 H    4.460721488642   -0.505582527124    0.756509041237
 C   -0.705278511358   -3.175582527124    1.168509041237
 H   -1.083278511358   -3.148582527124    0.130509041237
 H   -1.298278511358   -2.476582527124    1.784509041237
 H   -0.815278511358   -4.195582527124    1.568509041237
RB   -1.683672875378    2.175578746595   -1.059316463613
