14

 P    1.070032160965   -1.384181586850    0.670036810751
 O    0.483032160965   -0.334181586850    1.625036810751
 O    0.804032160965   -1.336181586850   -0.841963189249
 O    2.733032160965   -1.558181586850    0.957036810751
 O    0.755032160965   -2.942181586850    1.262036810751
 C    3.470032160965   -0.393181586850    0.580036810751
 H    3.139032160965    0.489818413150    1.156036810751
 H    3.355032160965   -0.182181586850   -0.497963189249
 H    4.530032160965   -0.595181586850    0.800036810751
 C   -0.635967839035   -3.265181586850    1.212036810751
 H   -1.013967839035   -3.238181586850    0.174036810751
 H   -1.228967839035   -2.566181586850    1.828036810751
 H   -0.745967839035   -4.285181586850    1.612036810751
RB   -1.785706524162    2.307479342638   -1.123394577388
