14

 P    1.093135718406   -1.414047940093    0.684546067255
 O    0.506135718406   -0.364047940093    1.639546067255
 O    0.827135718406   -1.366047940093   -0.827453932745
 O    2.756135718406   -1.588047940093    0.971546067255
 O    0.778135718406   -2.972047940093    1.276546067255
 C    3.493135718406   -0.423047940093    0.594546067255
 H    3.162135718406    0.459952059907    1.170546067255
 H    3.378135718406   -0.212047940093   -0.483453932745
 H    4.553135718406   -0.625047940093    0.814546067255
 C   -0.612864281594   -3.295047940093    1.226546067255
 H   -0.990864281594   -3.268047940093    0.188546067255
 H   -1.205864281594   -2.596047940093    1.842546067255
 H   -0.722864281594   -4.315047940093    1.626546067255
RB   -1.819717740424    2.351446207985   -1.144753948646
