14

 P    1.139342833288   -1.473780646577    0.713564580264
 O    0.552342833288   -0.423780646577    1.668564580264
 O    0.873342833288   -1.425780646577   -0.798435419736
 O    2.802342833288   -1.647780646577    1.000564580264
 O    0.824342833288   -3.031780646577    1.305564580264
 C    3.539342833288   -0.482780646577    0.623564580264
 H    3.208342833288    0.400219353423    1.199564580264
 H    3.424342833288   -0.271780646577   -0.454435419736
 H    4.599342833288   -0.684780646577    0.843564580264
 C   -0.566657166712   -3.354780646577    1.255564580264
 H   -0.944657166712   -3.327780646577    0.217564580264
 H   -1.159657166712   -2.655780646577    1.871564580264
 H   -0.676657166712   -4.374780646577    1.655564580264
RB   -1.887740172947    2.439379938680   -1.187472691162
