14

 P    1.231757063052   -1.593246059545    0.771601606282
 O    0.644757063052   -0.543246059545    1.726601606282
 O    0.965757063052   -1.545246059545   -0.740398393718
 O    2.894757063052   -1.767246059545    1.058601606282
 O    0.916757063052   -3.151246059545    1.363601606282
 C    3.631757063052   -0.602246059545    0.681601606282
 H    3.300757063052    0.280753940455    1.257601606282
 H    3.516757063052   -0.391246059545   -0.396398393718
 H    4.691757063052   -0.804246059545    0.901601606282
 C   -0.474242936948   -3.474246059545    1.313601606282
 H   -0.852242936948   -3.447246059545    0.275601606282
 H   -1.067242936948   -2.775246059545    1.929601606282
 H   -0.584242936948   -4.494246059545    1.713601606282
RB   -2.023785037993    2.615247400071   -1.272910176195
