14

 P    1.254860620493   -1.623112412788    0.786110862787
 O    0.667860620493   -0.573112412788    1.741110862787
 O    0.988860620493   -1.575112412788   -0.725889137213
 O    2.917860620493   -1.797112412788    1.073110862787
 O    0.939860620493   -3.181112412788    1.378110862787
 C    3.654860620493   -0.632112412788    0.696110862787
 H    3.323860620493    0.250887587212    1.272110862787
 H    3.539860620493   -0.421112412788   -0.381889137213
 H    4.714860620493   -0.834112412788    0.916110862787
 C   -0.451139379507   -3.504112412788    1.328110862787
 H   -0.829139379507   -3.477112412788    0.290110862787
 H   -1.044139379507   -2.805112412788    1.944110862787
 H   -0.561139379507   -4.524112412788    1.728110862787
RB   -2.057796254254    2.659214265419   -1.294269547453
