14

 P    1.277964177934   -1.652978766030    0.800620119291
 O    0.690964177934   -0.602978766030    1.755620119291
 O    1.011964177934   -1.604978766030   -0.711379880709
 O    2.940964177934   -1.826978766030    1.087620119291
 O    0.962964177934   -3.210978766030    1.392620119291
 C    3.677964177934   -0.661978766030    0.710620119291
 H    3.346964177934    0.221021233970    1.286620119291
 H    3.562964177934   -0.450978766030   -0.367379880709
 H    4.737964177934   -0.863978766030    0.930620119291
 C   -0.428035822066   -3.533978766030    1.342620119291
 H   -0.806035822066   -3.506978766030    0.304620119291
 H   -1.021035822066   -2.834978766030    1.958620119291
 H   -0.538035822066   -4.553978766030    1.742620119291
RB   -2.091807470516    2.703181130766   -1.315628918712
