14

 P    1.370378407698   -1.772444178998    0.858657145309
 O    0.783378407698   -0.722444178998    1.813657145309
 O    1.104378407698   -1.724444178998   -0.653342854691
 O    3.033378407698   -1.946444178998    1.145657145309
 O    1.055378407698   -3.330444178998    1.450657145309
 C    3.770378407698   -0.781444178998    0.768657145309
 H    3.439378407698    0.101555821002    1.344657145309
 H    3.655378407698   -0.570444178998   -0.309342854691
 H    4.830378407698   -0.983444178998    0.988657145309
 C   -0.335621592302   -3.653444178998    1.400657145309
 H   -0.713621592302   -3.626444178998    0.362657145309
 H   -0.928621592302   -2.954444178998    2.016657145309
 H   -0.445621592302   -4.673444178998    1.800657145309
RB   -2.227852335562    2.879048592157   -1.401066403745
