14

 P    1.393481965139   -1.802310532240    0.873166401814
 O    0.806481965139   -0.752310532240    1.828166401814
 O    1.127481965139   -1.754310532240   -0.638833598186
 O    3.056481965139   -1.976310532240    1.160166401814
 O    1.078481965139   -3.360310532240    1.465166401814
 C    3.793481965139   -0.811310532240    0.783166401814
 H    3.462481965139    0.071689467760    1.359166401814
 H    3.678481965139   -0.600310532240   -0.294833598186
 H    4.853481965139   -1.013310532240    1.003166401814
 C   -0.312518034861   -3.683310532240    1.415166401814
 H   -0.690518034861   -3.656310532240    0.377166401814
 H   -0.905518034861   -2.984310532240    2.031166401814
 H   -0.422518034861   -4.703310532240    1.815166401814
RB   -2.261863551823    2.923015457504   -1.422425775003
