14

 P    1.439689080022   -1.862043238725    0.902184914823
 O    0.852689080022   -0.812043238725    1.857184914823
 O    1.173689080022   -1.814043238725   -0.609815085177
 O    3.102689080022   -2.036043238725    1.189184914823
 O    1.124689080022   -3.420043238725    1.494184914823
 C    3.839689080022   -0.871043238725    0.812184914823
 H    3.508689080022    0.011956761275    1.388184914823
 H    3.724689080022   -0.660043238725   -0.265815085177
 H    4.899689080022   -1.073043238725    1.032184914823
 C   -0.266310919978   -3.743043238725    1.444184914823
 H   -0.644310919978   -3.716043238725    0.406184914823
 H   -0.859310919978   -3.044043238725    2.060184914823
 H   -0.376310919978   -4.763043238725    1.844184914823
RB   -2.329885984346    3.010949188200   -1.465144517519
