14

 P    1.462792637463   -1.891909591967    0.916694171327
 O    0.875792637463   -0.841909591967    1.871694171327
 O    1.196792637463   -1.843909591967   -0.595305828673
 O    3.125792637463   -2.065909591967    1.203694171327
 O    1.147792637463   -3.449909591967    1.508694171327
 C    3.862792637463   -0.900909591967    0.826694171327
 H    3.531792637463   -0.017909591967    1.402694171327
 H    3.747792637463   -0.689909591967   -0.251305828673
 H    4.922792637463   -1.102909591967    1.046694171327
 C   -0.243207362537   -3.772909591967    1.458694171327
 H   -0.621207362537   -3.745909591967    0.420694171327
 H   -0.836207362537   -3.073909591967    2.074694171327
 H   -0.353207362537   -4.792909591967    1.858694171327
RB   -2.363897200608    3.054916053547   -1.486503888778
