14

 P    1.508999752345   -1.951642298451    0.945712684337
 O    0.921999752345   -0.901642298451    1.900712684337
 O    1.242999752345   -1.903642298451   -0.566287315663
 O    3.171999752345   -2.125642298451    1.232712684337
 O    1.193999752345   -3.509642298451    1.537712684337
 C    3.908999752345   -0.960642298451    0.855712684337
 H    3.577999752345   -0.077642298451    1.431712684337
 H    3.793999752345   -0.749642298451   -0.222287315663
 H    4.968999752345   -1.162642298451    1.075712684337
 C   -0.197000247655   -3.832642298451    1.487712684337
 H   -0.575000247655   -3.805642298451    0.449712684337
 H   -0.790000247655   -3.133642298451    2.103712684337
 H   -0.307000247655   -4.852642298451    1.887712684337
RB   -2.431919633131    3.142849784242   -1.529222631294
