14

 P    1.532103309786   -1.981508651693    0.960221940841
 O    0.945103309786   -0.931508651693    1.915221940841
 O    1.266103309786   -1.933508651693   -0.551778059159
 O    3.195103309786   -2.155508651693    1.247221940841
 O    1.217103309786   -3.539508651693    1.552221940841
 C    3.932103309786   -0.990508651693    0.870221940841
 H    3.601103309786   -0.107508651693    1.446221940841
 H    3.817103309786   -0.779508651693   -0.207778059159
 H    4.992103309786   -1.192508651693    1.090221940841
 C   -0.173896690214   -3.862508651693    1.502221940841
 H   -0.551896690214   -3.835508651693    0.464221940841
 H   -0.766896690214   -3.163508651693    2.118221940841
 H   -0.283896690214   -4.882508651693    1.902221940841
RB   -2.465930849392    3.186816649590   -1.550582002552
