14

 P    1.578310424668   -2.041241358178    0.989240453850
 O    0.991310424668   -0.991241358178    1.944240453850
 O    1.312310424668   -1.993241358178   -0.522759546150
 O    3.241310424668   -2.215241358178    1.276240453850
 O    1.263310424668   -3.599241358178    1.581240453850
 C    3.978310424668   -1.050241358178    0.899240453850
 H    3.647310424668   -0.167241358178    1.475240453850
 H    3.863310424668   -0.839241358178   -0.178759546150
 H    5.038310424668   -1.252241358178    1.119240453850
 C   -0.127689575332   -3.922241358178    1.531240453850
 H   -0.505689575332   -3.895241358178    0.493240453850
 H   -0.720689575332   -3.223241358178    2.147240453850
 H   -0.237689575332   -4.942241358178    1.931240453850
RB   -2.533953281915    3.274750380285   -1.593300745069
