14

 P    1.647621096991   -2.130840417904    1.032768223364
 O    1.060621096991   -1.080840417904    1.987768223364
 O    1.381621096991   -2.082840417904   -0.479231776636
 O    3.310621096991   -2.304840417904    1.319768223364
 O    1.332621096991   -3.688840417904    1.624768223364
 C    4.047621096991   -1.139840417904    0.942768223364
 H    3.716621096991   -0.256840417904    1.518768223364
 H    3.932621096991   -0.928840417904   -0.135231776636
 H    5.107621096991   -1.341840417904    1.162768223364
 C   -0.058378903009   -4.011840417904    1.574768223364
 H   -0.436378903009   -3.984840417904    0.536768223364
 H   -0.651378903009   -3.312840417904    2.190768223364
 H   -0.168378903009   -5.031840417904    1.974768223364
RB   -2.635986930700    3.406650976328   -1.657378858843
