14

 P    1.740035326755   -2.250305830873    1.090805249382
 O    1.153035326755   -1.200305830873    2.045805249382
 O    1.474035326755   -2.202305830873   -0.421194750618
 O    3.403035326755   -2.424305830873    1.377805249382
 O    1.425035326755   -3.808305830873    1.682805249382
 C    4.140035326755   -1.259305830873    1.000805249382
 H    3.809035326755   -0.376305830873    1.576805249382
 H    4.025035326755   -1.048305830873   -0.077194750618
 H    5.200035326755   -1.461305830873    1.220805249382
 C    0.034035326755   -4.131305830873    1.632805249382
 H   -0.343964673245   -4.104305830873    0.594805249382
 H   -0.558964673245   -3.432305830873    2.248805249382
 H   -0.075964673245   -5.151305830873    2.032805249382
RB   -2.772031795746    3.582518437719   -1.742816343876
