14

 P    1.763138884196   -2.280172184115    1.105314505886
 O    1.176138884196   -1.230172184115    2.060314505886
 O    1.497138884196   -2.232172184115   -0.406685494114
 O    3.426138884196   -2.454172184115    1.392314505886
 O    1.448138884196   -3.838172184115    1.697314505886
 C    4.163138884196   -1.289172184115    1.015314505886
 H    3.832138884196   -0.406172184115    1.591314505886
 H    4.048138884196   -1.078172184115   -0.062685494114
 H    5.223138884196   -1.491172184115    1.235314505886
 C    0.057138884196   -4.161172184115    1.647314505886
 H   -0.320861115804   -4.134172184115    0.609314505886
 H   -0.535861115804   -3.462172184115    2.263314505886
 H   -0.052861115804   -5.181172184115    2.047314505886
RB   -2.806043012007    3.626485303066   -1.764175715135
