14

 P    1.878656671401   -2.429503950325    1.177860788409
 O    1.291656671401   -1.379503950325    2.132860788409
 O    1.612656671401   -2.381503950325   -0.334139211591
 O    3.541656671401   -2.603503950325    1.464860788409
 O    1.563656671401   -3.987503950325    1.769860788409
 C    4.278656671401   -1.438503950325    1.087860788409
 H    3.947656671401   -0.555503950325    1.663860788409
 H    4.163656671401   -1.227503950325    0.009860788409
 H    5.338656671401   -1.640503950325    1.307860788409
 C    0.172656671401   -4.310503950325    1.719860788409
 H   -0.205343328599   -4.283503950325    0.681860788409
 H   -0.420343328599   -3.611503950325    2.335860788409
 H    0.062656671401   -5.330503950325    2.119860788409
RB   -2.976099093315    3.846319629804   -1.870972571426
