14

 P    1.971070901165   -2.548969363294    1.235897814427
 O    1.384070901165   -1.498969363294    2.190897814427
 O    1.705070901165   -2.500969363294   -0.276102185573
 O    3.634070901165   -2.722969363294    1.522897814427
 O    1.656070901165   -4.106969363294    1.827897814427
 C    4.371070901165   -1.557969363294    1.145897814427
 H    4.040070901165   -0.674969363294    1.721897814427
 H    4.256070901165   -1.346969363294    0.067897814427
 H    5.431070901165   -1.759969363294    1.365897814427
 C    0.265070901165   -4.429969363294    1.777897814427
 H   -0.112929098835   -4.402969363294    0.739897814427
 H   -0.327929098835   -3.730969363294    2.393897814427
 H    0.155070901165   -5.449969363294    2.177897814427
RB   -3.112143958361    4.022187091195   -1.956410056459
