14

 P    2.017278016048   -2.608702069778    1.264916327436
 O    1.430278016048   -1.558702069778    2.219916327436
 O    1.751278016048   -2.560702069778   -0.247083672564
 O    3.680278016048   -2.782702069778    1.551916327436
 O    1.702278016048   -4.166702069778    1.856916327436
 C    4.417278016048   -1.617702069778    1.174916327436
 H    4.086278016048   -0.734702069778    1.750916327436
 H    4.302278016048   -1.406702069778    0.096916327436
 H    5.477278016048   -1.819702069778    1.394916327436
 C    0.311278016048   -4.489702069778    1.806916327436
 H   -0.066721983952   -4.462702069778    0.768916327436
 H   -0.281721983952   -3.790702069778    2.422916327436
 H    0.201278016048   -5.509702069778    2.206916327436
RB   -3.180166390884    4.110120821890   -1.999128798975
