14

 P    2.040381573489   -2.638568423020    1.279425583941
 O    1.453381573489   -1.588568423020    2.234425583941
 O    1.774381573489   -2.590568423020   -0.232574416059
 O    3.703381573489   -2.812568423021    1.566425583941
 O    1.725381573489   -4.196568423020    1.871425583941
 C    4.440381573489   -1.647568423021    1.189425583941
 H    4.109381573489   -0.764568423021    1.765425583941
 H    4.325381573489   -1.436568423021    0.111425583941
 H    5.500381573489   -1.849568423021    1.409425583941
 C    0.334381573489   -4.519568423020    1.821425583941
 H   -0.043618426511   -4.492568423020    0.783425583941
 H   -0.258618426511   -3.820568423020    2.437425583941
 H    0.224381573489   -5.539568423021    2.221425583941
RB   -3.214177607146    4.154087687238   -2.020488170233
