14

 P    2.063485130930   -2.668434776263    1.293934840445
 O    1.476485130930   -1.618434776263    2.248934840445
 O    1.797485130930   -2.620434776263   -0.218065159555
 O    3.726485130930   -2.842434776263    1.580934840445
 O    1.748485130930   -4.226434776263    1.885934840445
 C    4.463485130930   -1.677434776263    1.203934840445
 H    4.132485130930   -0.794434776263    1.779934840445
 H    4.348485130930   -1.466434776263    0.125934840445
 H    5.523485130930   -1.879434776263    1.423934840445
 C    0.357485130930   -4.549434776263    1.835934840445
 H   -0.020514869070   -4.522434776263    0.797934840445
 H   -0.235514869070   -3.850434776263    2.451934840445
 H    0.247485130930   -5.569434776263    2.235934840445
RB   -3.248188823407    4.198054552585   -2.041847541492
