14

 P    2.086588688371   -2.698301129505    1.308444096950
 O    1.499588688371   -1.648301129505    2.263444096950
 O    1.820588688371   -2.650301129505   -0.203555903050
 O    3.749588688371   -2.872301129505    1.595444096950
 O    1.771588688371   -4.256301129505    1.900444096950
 C    4.486588688371   -1.707301129505    1.218444096950
 H    4.155588688371   -0.824301129505    1.794444096950
 H    4.371588688371   -1.496301129505    0.140444096950
 H    5.546588688371   -1.909301129505    1.438444096950
 C    0.380588688371   -4.579301129505    1.850444096950
 H    0.002588688371   -4.552301129505    0.812444096950
 H   -0.212411311629   -3.880301129505    2.466444096950
 H    0.270588688371   -5.599301129505    2.250444096950
RB   -3.282200039669    4.242021417933   -2.063206912750
