14

 P    2.179002918135   -2.817766542473    1.366481122968
 O    1.592002918135   -1.767766542473    2.321481122968
 O    1.913002918135   -2.769766542473   -0.145518877032
 O    3.842002918135   -2.991766542473    1.653481122968
 O    1.864002918135   -4.375766542473    1.958481122968
 C    4.579002918135   -1.826766542473    1.276481122968
 H    4.248002918135   -0.943766542473    1.852481122968
 H    4.464002918135   -1.615766542473    0.198481122968
 H    5.639002918135   -2.028766542473    1.496481122968
 C    0.473002918135   -4.698766542473    1.908481122968
 H    0.095002918135   -4.671766542473    0.870481122968
 H   -0.119997081865   -3.999766542473    2.524481122968
 H    0.363002918135   -5.718766542473    2.308481122968
RB   -3.418244904715    4.417888879323   -2.148644397783
