14

 P    2.202106475576   -2.847632895716    1.380990379472
 O    1.615106475576   -1.797632895716    2.335990379472
 O    1.936106475576   -2.799632895716   -0.131009620528
 O    3.865106475576   -3.021632895716    1.667990379472
 O    1.887106475576   -4.405632895716    1.972990379472
 C    4.602106475576   -1.856632895716    1.290990379472
 H    4.271106475576   -0.973632895716    1.866990379472
 H    4.487106475576   -1.645632895716    0.212990379472
 H    5.662106475576   -2.058632895716    1.510990379472
 C    0.496106475576   -4.728632895716    1.922990379472
 H    0.118106475576   -4.701632895716    0.884990379472
 H   -0.096893524424   -4.029632895716    2.538990379472
 H    0.386106475576   -5.748632895716    2.322990379472
RB   -3.452256120976    4.461855744671   -2.170003769041
