25

 N   -4.885393608561    2.865668658679   -0.025216992973
 C   -3.699353608561    3.548728658679   -0.062316992973
 H   -3.778393608561    4.636058658679   -0.095706992973
 C   -4.977643608561    1.475888658679    0.020123007027
 O   -6.028623608561    0.859338658679    0.053493007027
 N   -3.720373608561    0.855308658679    0.023433007027
 H   -3.750143608561   -0.162251341321    0.056053007027
 C   -2.476063608561    1.457468658679   -0.011946992973
 O   -1.444803608561    0.747628658679   -0.002996992973
 C   -2.494223608561    2.900968658679   -0.057606992973
 H   -1.557433608561    3.451998658679   -0.087166992973
 H   -5.774193608561    3.357738658679   -0.029426992973
NA    0.461876391439   -0.239011341321    0.000813007027
 O    1.350011609199   -0.698590154363    0.002587712368
 C    2.381273616351   -1.408429918904    0.011537666563
 N    3.625592590292   -0.806242628561   -0.023164704252
 H    3.655368770809    0.211324554356   -0.055305448236
 C    4.882862960888   -1.426819665714   -0.019740630860
 O    5.933855002952   -0.810250321609   -0.052492654117
 N    4.790611906905   -2.816625448889    0.024923051172
 H    5.679412163386   -3.308692260115    0.029180077115
 C    3.604563613676   -3.499700111462    0.061322781657
 H    3.683594985638   -4.587055224059    0.094232047161
 C    2.399430011014   -2.851954851685    0.056531720074
 H    1.462640955362   -3.403003186027    0.085532949844
