25

 N   -4.925667776567    2.886509516850   -0.025287103593
 C   -3.739627776567    3.569569516850   -0.062387103593
 H   -3.818667776567    4.656899516850   -0.095777103593
 C   -5.017917776567    1.496729516850    0.020052896407
 O   -6.068897776567    0.880179516850    0.053422896407
 N   -3.760647776567    0.876149516850    0.023362896407
 H   -3.790417776567   -0.141410483150    0.055982896407
 C   -2.516337776567    1.478309516850   -0.012017103593
 O   -1.485077776567    0.768469516850   -0.003067103593
 C   -2.534497776567    2.921809516850   -0.057677103593
 H   -1.597707776567    3.472839516850   -0.087237103593
 H   -5.814467776567    3.378579516850   -0.029497103593
NA    0.421602223433   -0.218170483150    0.000742896407
 O    1.398550962969   -0.723707177496    0.002695072282
 C    2.429812970121   -1.433546942037    0.011645026476
 N    3.674131130759   -0.831361633924   -0.023120846149
 H    3.703906731944    0.186204137550   -0.055306780938
 C    4.931401369336   -1.451938997262   -0.019707431097
 O    5.982392662051   -0.835371477327   -0.052517789181
 N    4.839151129572   -2.841742799825    0.025019518770
 H    5.727951327628   -3.333809761641    0.029271333131
 C    3.653103669973   -3.524815428252    0.061484526304
 H    3.732135617926   -4.612169137063    0.094438760301
 C    2.447970168592   -2.877069921558    0.056701378035
 H    1.511181774555   -3.428116638300    0.085754668136
