25

 N   -5.086764465494    2.969872905255   -0.025569110333
 C   -3.900724465494    3.652932905255   -0.062669110333
 H   -3.979764465494    4.740262905255   -0.096059110333
 C   -5.179014465494    1.580092905255    0.019770889667
 O   -6.229994465494    0.963542905255    0.053140889667
 N   -3.921744465494    0.959512905255    0.023080889667
 H   -3.951514465494   -0.058047094745    0.055700889667
 C   -2.677434465494    1.561672905255   -0.012299110333
 O   -1.646174465494    0.851832905255   -0.003349110333
 C   -2.695594465494    3.005172905255   -0.057959110333
 H   -1.758804465494    3.556202905255   -0.087519110333
 H   -5.975564465494    3.461942905255   -0.029779110333
NA    0.260505534506   -0.134807094745    0.000460889667
 O    1.592708361145   -0.824175314307    0.003122947678
 C    2.623970368297   -1.534015078848    0.012072901873
 N    3.868285380665   -0.931837426393   -0.022937396318
 H    3.898058739286    0.085722893899   -0.055297275563
 C    5.125555108100   -1.552416049584   -0.019565006411
 O    6.176543500157   -0.935855574812   -0.052599901765
 N    5.033308020067   -2.942212202817    0.025405468419
 H    5.922107991779   -3.434279746392    0.029637222815
 C    3.847263787481   -3.625276975036    0.062121734615
 H    3.926297965075   -4.712625262228    0.095249057366
 C    2.642130678156   -2.977530514717    0.057369045572
 H    1.705344845328   -3.528570983960    0.086622721707
