25

 N   -8.510073130581    4.741334686850   -0.031908657364
 C   -7.324033130581    5.424394686850   -0.069008657364
 H   -7.403073130581    6.511724686850   -0.102398657364
 C   -8.602323130581    3.351554686850    0.013431342636
 O   -9.653303130581    2.735004686850    0.046801342636
 N   -7.345053130581    2.730974686850    0.016741342636
 H   -7.374823130581    1.713414686850    0.049361342636
 C   -6.100743130581    3.333134686850   -0.018638657364
 O   -5.069483130581    2.623294686850   -0.009688657364
 C   -6.118903130581    4.776634686850   -0.064298657364
 H   -5.182113130581    5.327664686850   -0.093858657364
 H   -9.398873130581    5.233404686850   -0.036118657364
NA   -3.162803130581    1.636654686850   -0.005878657364
 O    5.718549047012   -2.959133443565    0.011868396047
 C    6.749811054164   -3.668973208106    0.020818350241
 N    7.994084132899   -3.066895174047   -0.017261073866
 H    8.023827623121   -2.049405785279   -0.051805083965
 C    9.251347038975   -3.687490202374   -0.014403816094
 O   10.302296802009   -3.071021396362   -0.050258110015
 N    9.159141919192   -5.077186829506    0.033624475796
 H   10.047938851677   -5.569261964352    0.037604346550
 C    7.973140676113   -5.760149367543    0.073495667843
 H    8.052204551424   -6.847427106651    0.108796376907
 C    6.768012789017   -5.112390498096    0.069125439627
 H    5.831261085510   -5.663349659336    0.100895260579
