25

 N   -5.408957918197    3.136599487413   -0.026139937774
 C   -4.222917918197    3.819659487413   -0.063239937774
 H   -4.301957918197    4.906989487413   -0.096629937774
 C   -5.501207918197    1.746819487413    0.019200062226
 O   -6.552187918197    1.130269487413    0.052570062226
 N   -4.243937918197    1.126239487413    0.022510062226
 H   -4.273707918197    0.108679487413    0.055130062226
 C   -2.999627918197    1.728399487413   -0.012869937774
 O   -1.968367918197    1.018559487413   -0.003919937774
 C   -3.017787918197    3.171899487413   -0.058529937774
 H   -2.080997918197    3.722929487413   -0.088089937774
 H   -6.297757918197    3.628669487413   -0.030349937774
NA   -0.061687918197    0.031919487413   -0.000109937774
 O    1.981023082650   -1.025111782583    0.003971884510
 C    3.012285089802   -1.734951547124    0.012921838705
 N    4.256594270190   -1.132788004810   -0.022535572515
 H    4.286363474646   -0.115237731552   -0.055213637917
 C    5.513863050366   -1.753368950385   -0.019238227461
 O    6.564846069328   -1.136821460383   -0.052683855368
 N    5.421621800375   -3.143151005441    0.026177712967
 H    6.310421352056   -3.635219621901    0.030372772840
 C    4.235583545848   -3.826201297695    0.063353591571
 H    4.314621853711   -4.913539592305    0.096797535199
 C    3.030451162790   -3.178453079743    0.058656619765
 H    2.093670074903   -3.729482033822    0.088276850075
