25

 N   -5.489506295675    3.178281096033   -0.026283924792
 C   -4.303466295675    3.861341096033   -0.063383924792
 H   -4.382506295675    4.948671096033   -0.096773924792
 C   -5.581756295675    1.788501096033    0.019056075208
 O   -6.632736295675    1.171951096033    0.052426075208
 N   -4.324486295675    1.167921096033    0.022366075208
 H   -4.354256295675    0.150361096033    0.054986075208
 C   -3.080176295675    1.770081096033   -0.013013924792
 O   -2.048916295675    1.060241096033   -0.004063924792
 C   -3.098336295675    3.213581096033   -0.058673924792
 H   -2.161546295675    3.764611096033   -0.088233924792
 H   -6.378306295675    3.670351096033   -0.030493924792
NA   -0.142236295675    0.073601096033   -0.000253924792
 O    2.078101748723   -1.075345936571    0.004182838561
 C    3.109363755876   -1.785185701112    0.013132792755
 N    4.353671567021   -1.183025458527   -0.022428555268
 H    4.383439796163   -0.165477534810   -0.055180586871
 C    5.610940124724   -1.803606947266   -0.019148655296
 O    6.661921882217   -1.187062493787   -0.052689762926
 N    5.518700245336   -3.193385705448    0.026370838968
 H    6.407499698265   -3.685454572925    0.030557368751
 C    4.332663394388   -3.876432611455    0.063653560007
 H    4.411702671962   -4.963768569249    0.097171105968
 C    3.127531181845   -3.228683982470    0.058969540344
 H    2.190751208069   -3.779710243597    0.088674980585
