25

 N   -5.731151459285    3.303325842035   -0.026718627307
 C   -4.545111459285    3.986385842035   -0.063818627307
 H   -4.624151459285    5.073715842035   -0.097208627307
 C   -5.823401459285    1.913545842035    0.018621372693
 O   -6.874381459285    1.296995842035    0.051991372693
 N   -4.566131459285    1.292965842035    0.021931372693
 H   -4.595901459285    0.275405842035    0.054551372693
 C   -3.321821459285    1.895125842035   -0.013448627307
 O   -2.290561459285    1.185285842035   -0.004498627307
 C   -3.339981459285    3.338625842035   -0.059108627307
 H   -2.403191459285    3.889655842035   -0.088668627307
 H   -6.619951459285    3.795395842035   -0.030928627307
NA   -0.383881459285    0.198645842035   -0.000688627307
 O    2.369337715769   -1.226048478394    0.004812959251
 C    3.400599722921   -1.935888242935    0.013762913445
 N    4.644903619754   -1.333737406808   -0.022093452500
 H    4.674669060745   -0.316196180860   -0.055055432399
 C    5.902171541317   -1.954320444067   -0.018863069275
 O    6.953149692670   -1.337784646667   -0.052675189946
 N    5.809935579997   -3.344089804038    0.026950355875
 H    6.698734750346   -3.836159387329    0.031112673539
 C    4.623902741599   -4.027127056878    0.064536342291
 H    4.702944791327   -5.114456353169    0.098262803732
 C    3.418771016518   -3.379377256171    0.059889086449
 H    2.481994227866   -3.930395840410    0.089836389600
