25

 N   -5.771425657532    3.324166622032   -0.026791453462
 C   -4.585385657532    4.007226622032   -0.063891453462
 H   -4.664425657532    5.094556622032   -0.097281453462
 C   -5.863675657532    1.934386622032    0.018548546538
 O   -6.914655657532    1.317836622032    0.051918546538
 N   -4.606405657532    1.313806622032    0.021858546538
 H   -4.636175657532    0.296246622032    0.054478546538
 C   -3.362095657532    1.915966622032   -0.013521453462
 O   -2.330835657532    1.206126622032   -0.004571453462
 C   -3.380255657532    3.359466622032   -0.059181453462
 H   -2.443465657532    3.910496622032   -0.088741453462
 H   -6.660225657532    3.816236622032   -0.031001453462
NA   -0.424155657532    0.219486622032   -0.000761453462
 O    2.417877039297   -1.251165579701    0.004917603629
 C    3.449139046450   -1.961005344242    0.013867557824
 N    4.693442317649   -1.358856007975   -0.022035676247
 H    4.723207313005   -0.341315849983   -0.055031009655
 C    5.950710137516   -1.979439292162   -0.018813159518
 O    7.001687712500   -1.362904874965   -0.052668334770
 N    5.858474802412   -3.369207153604    0.027046961065
 H    6.747273927558   -3.861276851064    0.031205432260
 C    4.672442605361   -4.052242867237    0.064681125841
 H    4.751485098168   -5.139571101353    0.098440776712
 C    3.467310958192   -3.404492879699    0.060039710496
 H    2.530534678649   -3.955510239839    0.090025437284
