25

 N   -5.972796666016    3.428370478238   -0.027157069507
 C   -4.786756666016    4.111430478238   -0.064257069507
 H   -4.865796666016    5.198760478238   -0.097647069507
 C   -6.065046666016    2.038590478238    0.018182930493
 O   -7.116026666016    1.422040478238    0.051552930493
 N   -4.807776666016    1.418010478238    0.021492930493
 H   -4.837546666016    0.400450478238    0.054112930493
 C   -3.563466666016    2.020170478238   -0.013887069507
 O   -2.532206666016    1.310330478238   -0.004937069507
 C   -3.581626666016    3.463670478238   -0.059547069507
 H   -2.644836666016    4.014700478238   -0.089107069507
 H   -6.861596666016    3.920440478238   -0.031367069507
NA   -0.625526666016    0.323690478238   -0.001127069507
 O    2.660573639693   -1.376751130015    0.005439340255
 C    3.691835646846   -2.086590894557    0.014389294449
 N    4.936135896842   -1.484448787476   -0.021739182421
 H    4.965898740227   -0.466913776932   -0.054894808945
 C    6.193403225539   -2.105033261906   -0.018554471169
 O    7.244378017265   -1.488505497129   -0.052616561765
 N    6.101170914387   -3.494793900634    0.027530062269
 H    6.989969821104   -3.986864148504    0.031670047776
 C    4.915141814455   -4.177822195394    0.065395766686
 H    4.994186446904   -5.265145309917    0.099314922130
 C    3.710010543529   -3.530071307344    0.060782420097
 H    2.773236722576   -4.081082767357    0.090952806451
