25

 N   -6.013070871028    3.449211241086   -0.027230476402
 C   -4.827030871028    4.132271241086   -0.064330476402
 H   -4.906070871028    5.219601241086   -0.097720476402
 C   -6.105320871028    2.059431241086    0.018109523598
 O   -7.156300871028    1.442881241086    0.051479523598
 N   -4.848050871028    1.438851241086    0.021419523598
 H   -4.877820871028    0.421291241086    0.054039523598
 C   -3.603740871028    2.041011241086   -0.013960476402
 O   -2.572480871028    1.331171241086   -0.005010476402
 C   -3.621900871028    3.484511241086   -0.059620476402
 H   -2.685110871028    4.035541241086   -0.089180476402
 H   -6.901870871028    3.941281241086   -0.031440476402
NA   -0.665800871028    0.344531241086   -0.001200476402
 O    2.709112956457   -1.401868248471    0.005543403894
 C    3.740374963610   -2.111708013013    0.014493358088
 N    4.984674629925   -1.509567299991   -0.021678429660
 H    5.014437057562   -0.492033282065   -0.054864878192
 C    6.241941863717   -2.130152003957   -0.018500987845
 O    7.292916117739   -1.513625522009   -0.052602865219
 N    6.149710136763   -3.519911249885    0.027626696884
 H    7.038509001255   -4.011981603918    0.031763127864
 C    4.963681635186   -4.202938114002    0.065536922969
 H    5.042726681003   -5.290260241275    0.099486748797
 C    3.758550436949   -3.555187052299    0.060928973590
 H    2.821777090999   -4.106197374531    0.091134867263
