25

 N   -6.133893492367    3.511733513725   -0.027451232251
 C   -4.947853492367    4.194793513725   -0.064551232251
 H   -5.026893492367    5.282123513725   -0.097941232251
 C   -6.226143492367    2.121953513725    0.017888767749
 O   -7.277123492367    1.505403513725    0.051258767749
 N   -4.968873492367    1.501373513725    0.021198767749
 H   -4.998643492367    0.483813513725    0.053818767749
 C   -3.724563492367    2.103533513725   -0.014181232251
 O   -2.693303492367    1.393693513725   -0.005231232251
 C   -3.742723492367    3.547033513725   -0.059841232251
 H   -2.805933492367    4.098063513725   -0.089401232251
 H   -7.022693492367    4.003803513725   -0.031661232251
NA   -0.786623492367    0.407053513725   -0.001421232251
 O    2.854730900446   -1.477219619745    0.005855059648
 C    3.885992907598   -2.187059384286    0.014805013842
 N    5.130290861964   -1.584922755315   -0.021493428454
 H    5.160052070205   -0.567391645376   -0.054770010176
 C    6.387557817368   -2.205508131756   -0.018337244749
 O    7.438530494304   -1.588985407990   -0.052555471099
 N    6.295327803861   -3.595263297344    0.027916627846
 H    7.184126544453   -4.087333962438    0.032042664274
 C    5.109301057289   -4.278285970217    0.065957049209
 H    5.188347315523   -5.365605205233    0.099996564828
 C    3.904170072248   -3.630534399779    0.061364882956
 H    2.967398119526   -4.181541388729    0.091674611134
