25

 N   -6.294990334897    3.595096508488   -0.027746760643
 C   -5.108950334897    4.278156508488   -0.064846760643
 H   -5.187990334897    5.365486508488   -0.098236760643
 C   -6.387240334897    2.205316508488    0.017593239357
 O   -7.438220334897    1.588766508488    0.050963239357
 N   -5.129970334897    1.584736508488    0.020903239357
 H   -5.159740334897    0.567176508488    0.053523239357
 C   -3.885660334897    2.186896508488   -0.014476760643
 O   -2.854400334897    1.477056508488   -0.005526760643
 C   -3.903820334897    3.630396508488   -0.060136760643
 H   -2.967030334897    4.181426508488   -0.089696760643
 H   -7.183790334897    4.087166508488   -0.031956760643
NA   -0.947720334897    0.490416508488   -0.001716760643
 O    3.048888145019   -1.577688150199    0.006269413392
 C    4.080150152172   -2.287527914740    0.015219367586
 N    5.324445911231   -1.685396512653   -0.021240675019
 H    5.354205555797   -0.667869124433   -0.054632258937
 C    6.581712509590   -2.305982749799   -0.018111614836
 O    7.632683164191   -1.689464835837   -0.052478292469
 N    6.489484693258   -3.695732693294    0.028303262619
 H    7.378283274861   -4.187803756588    0.032416036491
 C    5.303460197233   -4.378750002066    0.066509801959
 H    5.382508010200   -5.466065535489    0.100663754036
 C    4.098329485585   -3.730997780533    0.061937773618
 H    3.161559319523   -4.282000503394    0.092379985696
