25

 N   -6.335264547937    3.615937251140   -0.027820844381
 C   -5.149224547937    4.298997251140   -0.064920844381
 H   -5.228264547937    5.386327251140   -0.098310844381
 C   -6.427514547937    2.226157251140    0.017519155619
 O   -7.478494547937    1.609607251140    0.050889155619
 N   -5.170244547937    1.605577251140    0.020829155619
 H   -5.200014547937    0.588017251140    0.053449155619
 C   -3.925934547937    2.207737251140   -0.014550844381
 O   -2.894674547937    1.497897251140   -0.005600844381
 C   -3.944094547937    3.651237251140   -0.060210844381
 H   -3.007304547937    4.202267251140   -0.089770844381
 H   -7.224064547937    4.108007251140   -0.032030844381
NA   -0.987994547937    0.511257251140   -0.001790844381
 O    3.097427453756   -1.602805288851    0.006372800187
 C    4.128689460908   -2.312645053392    0.015322754382
 N    5.372984686063   -1.710514920776   -0.021176453177
 H    5.402743950339   -0.692988436460   -0.054595908673
 C    6.630251197577   -2.331101366972   -0.018053966568
 O    7.681221360345   -1.714584621178   -0.052456622397
 N    6.538023915596   -3.720850042168    0.028399931530
 H    7.426822458516   -4.212921202189    0.032509491128
 C    5.351999966917   -4.403866048138    0.066646730711
 H    5.431048157999   -5.491180682544    0.100828417256
 C    4.146869321759   -3.756113668473    0.062079582933
 H    3.210099590229   -4.307115355205    0.092553903402
