25

 N   -6.375538761908    3.636777991458   -0.027895005835
 C   -5.189498761908    4.319837991458   -0.064995005835
 H   -5.268538761908    5.407167991458   -0.098385005835
 C   -6.467788761908    2.246997991458    0.017444994165
 O   -7.518768761908    1.630447991458    0.050814994165
 N   -5.210518761908    1.626417991458    0.020754994165
 H   -5.240288761908    0.608857991458    0.053374994165
 C   -3.966208761908    2.228577991458   -0.014625005835
 O   -2.934948761908    1.518737991458   -0.005675005835
 C   -3.984368761908    3.672077991458   -0.060285005835
 H   -3.047578761908    4.223107991458   -0.089845005835
 H   -7.264338761908    4.128847991458   -0.032105005835
NA   -1.028268761908    0.532097991458   -0.001865005835
 O    3.145966761561   -1.627922429837    0.006476109268
 C    4.177228768713   -2.337762194378    0.015426063462
 N    5.421523465741   -1.735633316836   -0.021111833015
 H    5.451282353843   -0.718107726174   -0.054558821322
 C    6.678789891347   -2.356219969715   -0.017995840081
 O    7.729759567605   -1.739704378840   -0.052434036805
 N    6.586563137931   -3.745967390998    0.028496604378
 H    7.475361642578   -4.238038646656    0.032602988771
 C    5.400539730676   -4.428982108939    0.066783174059
 H    5.479588295782   -5.516295854522    0.100992257970
 C    4.195409151289   -3.781229572933    0.062220847521
 H    3.258639849593   -4.332230235283    0.092726886116
