25

 N   -6.818555173073    3.866025991564   -0.028715531190
 C   -5.632515173073    4.549085991564   -0.065815531190
 H   -5.711555173073    5.636415991564   -0.099205531190
 C   -6.910805173073    2.476245991564    0.016624468810
 O   -7.961785173073    1.859695991564    0.049994468810
 N   -5.653535173073    1.855665991564    0.019934468810
 H   -5.683305173073    0.838105991564    0.052554468810
 C   -4.409225173073    2.457825991564   -0.015445531190
 O   -3.377965173073    1.747985991564   -0.006495531190
 C   -4.427385173073    3.901325991564   -0.061105531190
 H   -3.490595173073    4.452355991564   -0.090665531190
 H   -7.707355173073    4.358095991564   -0.032925531190
NA   -1.471285173073    0.761345991564   -0.002685531190
 O    3.679899089931   -1.904211124076    0.007607759788
 C    4.711161097083   -2.614050888618    0.016557713983
 N    5.955450341067   -2.011934932374   -0.020376668946
 H    5.985205345111   -0.994418542075   -0.054105815206
 C    7.212715879440   -2.632523713295   -0.017327223602
 O    8.263680532478   -2.016020012506   -0.052129645630
 N    7.120494583407   -4.022258225394    0.029560246360
 H    8.009292692490   -4.514330466005    0.033634091034
 C    5.934476766600   -4.705259682659    0.068254386601
 H    6.013529193591   -5.792564277596    0.102744240427
 C    4.729346866314   -4.057505537088    0.063741468441
 H    3.792582003002   -4.608495652954    0.094572556377
