25

 N   -6.979652073925    3.949388840940   -0.029015870473
 C   -5.793612073925    4.632448840940   -0.066115870473
 H   -5.872652073925    5.719778840940   -0.099505870473
 C   -7.071902073925    2.559608840940    0.016324129527
 O   -8.122882073925    1.943058840940    0.049694129527
 N   -5.814632073925    1.939028840940    0.019634129527
 H   -5.844402073925    0.921468840940    0.052254129527
 C   -4.570322073925    2.541188840940   -0.015745870473
 O   -3.539062073925    1.831348840940   -0.006795870473
 C   -4.588482073925    3.984688840940   -0.061405870473
 H   -3.651692073925    4.535718840940   -0.090965870473
 H   -7.868452073925    4.441458840940   -0.033225870473
NA   -1.632382073925    0.844708840940   -0.002985870473
 O    3.874056276183   -2.004679799917    0.008017302642
 C    4.905318283335   -2.714519564459    0.016967256836
 N    6.149605693554   -2.112407938299   -0.020099257878
 H    6.179359391466   -1.094894631144   -0.053922435181
 C    7.406870933481   -2.732997432427   -0.017071989972
 O    8.457833897338   -2.116497716113   -0.051995792539
 N    7.314651472599   -4.122727618568    0.029947124903
 H    8.203449448503   -4.614800189389    0.034010125488
 C    6.128635535809   -4.805724631981    0.068777090785
 H    6.207689261484   -5.893026160426    0.103360513081
 C    4.923505863894   -4.157969947023    0.064280638302
 H    3.986742493232   -4.708956528548    0.095220051128
