25

 N   -7.140748986427    4.032751661534   -0.029317149954
 C   -5.954708986427    4.715811661534   -0.066417149954
 H   -6.033748986427    5.803141661534   -0.099807149954
 C   -7.232998986427    2.642971661534    0.016022850046
 O   -8.283978986427    2.026421661534    0.049392850046
 N   -5.975728986427    2.022391661534    0.019332850046
 H   -6.005498986427    1.004831661534    0.051952850046
 C   -4.731418986427    2.624551661534   -0.016047149954
 O   -3.700158986427    1.914711661534   -0.007097149954
 C   -4.749578986427    4.068051661534   -0.061707149954
 H   -3.812788986427    4.619081661534   -0.091267149954
 H   -8.029548986427    4.524821661534   -0.033527149954
NA   -1.793478986427    0.928071661534   -0.003287149954
 O    4.068213450784   -2.105148504540    0.008425905297
 C    5.099475457936   -2.814988269081    0.017375859491
 N    6.343761106599   -2.212880795488   -0.019817027939
 H    6.373513549814   -1.195370445074   -0.053730137866
 C    7.601026059791   -2.833470973620   -0.016810970851
 O    8.651987401002   -2.216975078414   -0.051850863489
 N    7.508808361763   -4.223197011181    0.030334051086
 H    8.397606209661   -4.715269898740    0.034386680229
 C    6.322794230983   -4.906189762903    0.069293922542
 H    6.401849204203   -5.993488350572    0.103966835051
 C    5.117664778446   -4.258434560673    0.064813218064
 H    4.180902841703   -4.809417752711    0.095856234357
