25

 N   -7.181023216294    4.053592362391   -0.029392609566
 C   -5.994983216294    4.736652362391   -0.066492609566
 H   -6.074023216294    5.823982362391   -0.099882609566
 C   -7.273273216294    2.663812362391    0.015947390434
 O   -8.324253216294    2.047262362391    0.049317390434
 N   -6.016003216294    2.043232362391    0.019257390434
 H   -6.045773216294    1.025672362391    0.051877390434
 C   -4.771693216294    2.645392362391   -0.016122609566
 O   -3.740433216294    1.935552362391   -0.007172609566
 C   -4.789853216294    4.088892362391   -0.061782609566
 H   -3.853063216294    4.639922362391   -0.091342609566
 H   -8.069823216294    4.545662362391   -0.033602609566
NA   -1.833753216294    0.948912362391   -0.003362609566
 O    4.116752742693   -2.130265684987    0.008527916219
 C    5.148014749845   -2.840105449528    0.017477870413
 N    6.392299968909   -2.237998987607   -0.019745754226
 H    6.422052106137   -1.220489357532   -0.053680738160
 C    7.649564852169   -2.858589332385   -0.016744856173
 O    8.700525797661   -2.242094368098   -0.051812985006
 N    7.557347584051   -4.248314359251    0.030430789712
 H    8.446145400720   -4.740387323984    0.034480896244
 C    6.371333893712   -4.931306072712    0.069422257662
 H    6.450389171177   -6.018603943932    0.104116936572
 C    5.166204494677   -4.283550744460    0.064945383519
 H    4.229442907637   -4.834533110726    0.096013598932
