25

 N   -7.221297446838    4.074433061583   -0.029468123268
 C   -6.035257446838    4.757493061583   -0.066568123268
 H   -6.114297446838    5.844823061583   -0.099958123268
 C   -7.313547446838    2.684653061583    0.015871876732
 O   -8.364527446838    2.068103061583    0.049241876732
 N   -6.056277446838    2.064073061583    0.019181876732
 H   -6.086047446838    1.046513061583    0.051801876732
 C   -4.811967446838    2.666233061583   -0.016198123268
 O   -3.780707446838    1.956393061583   -0.007248123268
 C   -4.830127446838    4.109733061583   -0.061858123268
 H   -3.893337446838    4.660763061583   -0.091418123268
 H   -8.110097446838    4.566503061583   -0.033678123268
NA   -1.874027446838    0.969753061583   -0.003438123268
 O    4.165292033925   -2.155382867099    0.008629873052
 C    5.196554041078   -2.865222631640    0.017579827246
 N    6.440838834735   -2.263117171124   -0.019674203285
 H    6.470590668961   -1.245608254077   -0.053630825446
 C    7.698103648742   -2.883707680860   -0.016678408658
 O    8.749064202377   -2.267213638042   -0.051774469328
 N    7.605886806337   -4.273431707287    0.030527531080
 H    8.494684592078   -4.765504748416    0.034575142191
 C    6.419873552145   -4.956422393024    0.069550254943
 H    6.498929130886   -6.043719555066    0.104266465636
 C    5.214744206089   -4.308666940029    0.065077169848
 H    4.277982965342   -4.859648488901    0.096170312761
