25

 N   -7.261571678048    4.095273759136   -0.029543690188
 C   -6.075531678048    4.778333759136   -0.066643690188
 H   -6.154571678048    5.865663759136   -0.100033690188
 C   -7.353821678048    2.705493759136    0.015796309812
 O   -8.404801678048    2.088943759136    0.049166309812
 N   -6.096551678048    2.084913759136    0.019106309812
 H   -6.126321678048    1.067353759136    0.051726309812
 C   -4.852241678048    2.687073759136   -0.016273690188
 O   -3.820981678048    1.977233759136   -0.007323690188
 C   -4.870401678048    4.130573759136   -0.061933690188
 H   -3.933611678048    4.681603759136   -0.091493690188
 H   -8.150371678048    4.587343759136   -0.033753690188
NA   -1.914301678048    0.990593759136   -0.003513690188
 O    4.213831324491   -2.180500050850    0.008731776665
 C    5.245093331644   -2.890339815391    0.017681730860
 N    6.489377704025   -2.288235346169   -0.019602379574
 H    6.519129238192   -1.270727134949   -0.053580407975
 C    7.746642449450   -2.908826019198   -0.016611633660
 O    8.797602615034   -2.292332888544   -0.051735326703
 N    7.654426028622   -4.298549055292    0.030624275144
 H    8.543223783732   -4.790622172048    0.034669417588
 C    6.468413206342   -4.981538723680    0.069677919820
 H    6.547469083433   -6.068835183705    0.104415431447
 C    5.263283912751   -4.333783147202    0.065208583148
 H    4.326523014936   -4.884763886931    0.096326386307
