25

 N   -7.342120142429    4.136955149421   -0.029694980300
 C   -6.156080142429    4.820015149421   -0.066794980300
 H   -6.235120142429    5.907345149421   -0.100184980300
 C   -7.434370142429    2.747175149421    0.015645019700
 O   -8.485350142429    2.130625149421    0.049015019700
 N   -6.177100142429    2.126595149421    0.018955019700
 H   -6.206870142429    1.109035149421    0.051575019700
 C   -4.932790142429    2.728755149421   -0.016424980300
 O   -3.901530142429    2.018915149421   -0.007474980300
 C   -4.950950142429    4.172255149421   -0.062084980300
 H   -4.014160142429    4.723285149421   -0.091644980300
 H   -8.230920142429    4.629025149421   -0.033904980300
NA   -1.994850142429    1.032275149421   -0.003664980300
 O    4.310909903661   -2.230734423174    0.008935427621
 C    5.342171910814   -2.940574187715    0.017885381816
 N    6.586455452800   -2.338471671349   -0.019457931206
 H    6.616206395509   -1.320964850613   -0.053478090886
 C    7.843720063034   -2.959062666072   -0.016477122053
 O    8.894679463717   -2.342571332386   -0.051655200510
 N    7.751504473189   -4.348783751205    0.030817771190
 H    8.640302167908   -4.840857016959    0.034858054860
 C    6.565492502272   -5.031771415406    0.069932273515
 H    6.644548967454   -6.119066492452    0.104711709161
 C    5.360363312096   -4.384015595666    0.065470314406
 H    4.423603090259   -4.934994741371    0.096636653307
