25

 N   -7.382394375583    4.157795842201   -0.029770701843
 C   -6.196354375583    4.840855842201   -0.066870701843
 H   -6.275394375583    5.928185842201   -0.100260701843
 C   -7.474644375583    2.768015842201    0.015569298157
 O   -8.525624375583    2.151465842201    0.048939298157
 N   -6.217374375583    2.147435842201    0.018879298157
 H   -6.247144375583    1.129875842201    0.051499298157
 C   -4.973064375583    2.749595842201   -0.016500701843
 O   -3.941804375583    2.039755842201   -0.007550701843
 C   -4.991224375583    4.193095842201   -0.062160701843
 H   -4.054434375583    4.744125842201   -0.091720701843
 H   -8.271194375583    4.649865842201   -0.033980701843
NA   -2.035124375583    1.053115842201   -0.003740701843
 O    4.359449192284   -2.255851611698    0.009037176613
 C    5.390711199436   -2.965691376239    0.017987130807
 N    6.634994332189   -2.363589821730   -0.019385315000
 H    6.664744983417   -1.346083685862   -0.053426206906
 C    7.892258875794   -2.984180974903   -0.016409395591
 O    8.943217899523   -2.367690526292   -0.051614236368
 N    7.800043695471   -4.373901099115    0.030914523089
 H    8.688841360423   -4.865974438261    0.034952415823
 C    6.614032144124   -5.056887776174    0.070058972631
 H    6.693088899127   -6.144182172050    0.104859038515
 C    5.408903004913   -4.409131836619    0.065600643921
 H    4.472143116212   -4.960110197202    0.096790866597
