25

 N   -7.462942843769    4.199477223152   -0.029922293908
 C   -6.276902843769    4.882537223152   -0.067022293908
 H   -6.355942843769    5.969867223152   -0.100412293908
 C   -7.555192843769    2.809697223152    0.015417706092
 O   -8.606172843769    2.193147223152    0.048787706092
 N   -6.297922843769    2.189117223152    0.018727706092
 H   -6.327692843769    1.171557223152    0.051347706092
 C   -5.053612843769    2.791277223152   -0.016652293908
 O   -4.022352843769    2.081437223152   -0.007702293908
 C   -5.071772843769    4.234777223152   -0.062312293908
 H   -4.134982843769    4.785807223152   -0.091872293908
 H   -8.351742843769    4.691547223152   -0.034132293908
NA   -2.115672843769    1.094797223152   -0.003892293908
 O    4.456527767650   -2.306085993355    0.009240525616
 C    5.487789774802   -3.015925757897    0.018190479810
 N    6.732072100734   -2.413826098675   -0.019239319008
 H    6.761822177296   -1.396321312300   -0.053321025949
 C    7.989336512973   -3.034417564071   -0.016273025921
 O    9.040294793523   -2.417928859448   -0.051530553032
 N    7.897122140032   -4.424135794843    0.031108034436
 H    8.785919746286   -4.916209278615    0.035141220189
 C    6.711111415886   -5.107120526792    0.070311440342
 H    6.790168742284   -6.194413580458    0.105152120477
 C    5.505982377154   -4.459364351145    0.065860258709
 H    4.569223145254   -5.010341164682    0.097097500799
