25

 N   -7.624039787418    4.282839967237   -0.030226052627
 C   -6.437999787418    4.965899967237   -0.067326052627
 H   -6.517039787418    6.053229967237   -0.100716052627
 C   -7.716289787418    2.893059967237    0.015113947373
 O   -8.767269787418    2.276509967237    0.048483947373
 N   -6.459019787418    2.272479967237    0.018423947373
 H   -6.488789787418    1.254919967237    0.051043947373
 C   -5.214709787418    2.874639967237   -0.016956052627
 O   -4.183449787418    2.164799967237   -0.008006052627
 C   -5.232869787418    4.318139967237   -0.062616052627
 H   -4.296079787418    4.869169967237   -0.092176052627
 H   -8.512839787418    4.774909967237   -0.034436052627
NA   -2.276769787418    1.178159967237   -0.004196052627
 O    4.650684911104   -2.406554774487    0.009646649033
 C    5.681946918257   -3.116394539028    0.018596603228
 N    6.926227675631   -2.514298560506   -0.018944382045
 H    6.955976634976   -1.496796394881   -0.053105214367
 C    8.183491832458   -3.134890632265   -0.015996750867
 O    9.234448668188   -2.518405314507   -0.051356417453
 N    8.091279029146   -4.524605185946    0.031495086245
 H    8.980076521242   -5.016678950620    0.035519146888
 C    6.905269913189   -5.207586140425    0.070812786920
 H    6.984328350449   -6.294876587484    0.105732203191
 C    5.700141069803   -4.559829506282    0.066375460848
 H    4.763383114827   -5.110803315392    0.097703856337
