25

 N   -7.785136740330    4.366202688690   -0.030530539070
 C   -6.599096740330    5.049262688690   -0.067630539070
 H   -6.678136740330    6.136592688690   -0.101020539070
 C   -7.877386740330    2.976422688690    0.014809460930
 O   -8.928366740330    2.359872688690    0.048179460930
 N   -6.620116740330    2.355842688690    0.018119460930
 H   -6.649886740330    1.338282688690    0.050739460930
 C   -5.375806740330    2.958002688690   -0.017260539070
 O   -4.344546740330    2.248162688690   -0.008310539070
 C   -5.393966740330    4.401502688690   -0.062920539070
 H   -4.457176740330    4.952532688690   -0.092480539070
 H   -8.673936740330    4.858272688690   -0.034740539070
NA   -2.437866740330    1.261522688690   -0.004500539070
 O    4.844842045296   -2.507023578251    0.010052044726
 C    5.876104052448   -3.216863342792    0.019001998921
 N    7.120383298656   -2.614770905390   -0.018645715218
 H    7.150131181663   -1.597271261126   -0.052882500698
 C    8.377647209387   -3.235363560543   -0.015715997774
 O    9.428602653174   -2.618881501199   -0.051173708950
 N    8.285435918252   -4.625074576597    0.031882174928
 H    9.174233300315   -5.117148611567    0.035897476296
 C    7.099428351659   -5.308051896843    0.071309588169
 H    7.178487859135   -6.395339836143    0.106304583957
 C    5.894299696471   -4.660294821591    0.066885562174
 H    4.957542971731   -5.211265740179    0.098301456622
