25

 N   -7.825410979947    4.387043365666   -0.030606769285
 C   -6.639370979947    5.070103365666   -0.067706769285
 H   -6.718410979947    6.157433365666   -0.101096769285
 C   -7.917660979947    2.997263365666    0.014733230715
 O   -8.968640979947    2.380713365666    0.048103230715
 N   -6.660390979947    2.376683365666    0.018043230715
 H   -6.690160979947    1.359123365666    0.050663230715
 C   -5.416080979947    2.978843365666   -0.017336769285
 O   -4.384820979947    2.269003365666   -0.008386769285
 C   -5.434240979947    4.422343365666   -0.062996769285
 H   -4.497450979947    4.973373365666   -0.092556769285
 H   -8.714210979947    4.879113365666   -0.034816769285
NA   -2.478140979947    1.282363365666   -0.004576769285
 O    4.893381327455   -2.532140782579    0.010153285045
 C    5.924643334608   -3.241980547120    0.019103239240
 N    7.168922211627   -2.639888974111   -0.018570491874
 H    7.198669831678   -1.622389945316   -0.052825792227
 C    8.426186062231   -3.260481771675   -0.015645141207
 O    9.477141165959   -2.644000507715   -0.051126752419
 N    8.333975140527   -4.650191924191    0.031978952602
 H    9.222772495701   -5.142266025148    0.035992118747
 C    7.147967952457   -5.333168357313    0.071433110145
 H    7.227027721394   -6.420455684464    0.106446529726
 C    5.942839343247   -4.685411174385    0.067012326271
 H    5.006082919067   -5.236381387388    0.098449550078
