25

 N   -7.905959460794    4.428724715687   -0.030759355536
 C   -6.719919460794    5.111784715687   -0.067859355536
 H   -6.798959460794    6.199114715687   -0.101249355536
 C   -7.998209460794    3.038944715687    0.014580644464
 O   -9.049189460794    2.422394715687    0.047950644464
 N   -6.740939460794    2.418364715687    0.017890644464
 H   -6.770709460794    1.400804715687    0.050510644464
 C   -5.496629460794    3.020524715687   -0.017489355536
 O   -4.465369460794    2.310684715687   -0.008539355536
 C   -5.514789460794    4.464024715687   -0.063149355536
 H   -4.577999460794    5.015054715687   -0.092709355536
 H   -8.794759460794    4.920794715687   -0.034969355536
NA   -2.558689460794    1.324044715687   -0.004729355536
 O    4.990459890160   -2.582375195166    0.010355639863
 C    6.021721897312   -3.292214959707    0.019305594057
 N    7.266000045954   -2.690125091240   -0.018419400306
 H    7.295747147217   -1.672627276117   -0.052711181940
 C    8.523263777929   -3.310718169635   -0.015502653837
 O    9.574218210752   -2.694238474128   -0.051031357129
 N    8.431053585077   -4.700426619302    0.032172514326
 H    9.319850887192   -5.192500850389    0.036181473276
 C    7.245047143801   -5.383401303055    0.071679368228
 H    7.324107428578   -6.470687423081    0.106729089625
 C    6.039918625302   -4.735643907797    0.067264972552
 H    5.103162794106   -5.286612729415    0.098744223237
