25

 N   -8.026782185994    4.491246731161   -0.030988540283
 C   -6.840742185994    5.174306731161   -0.068088540283
 H   -6.919782185994    6.261636731161   -0.101478540283
 C   -8.119032185994    3.101466731161    0.014351459717
 O   -9.170012185994    2.484916731161    0.047721459717
 N   -6.861762185994    2.480886731161    0.017661459717
 H   -6.891532185994    1.463326731161    0.050281459717
 C   -5.617452185994    3.083046731161   -0.017718540283
 O   -4.586192185994    2.373206731161   -0.008768540283
 C   -5.635612185994    4.526546731161   -0.063378540283
 H   -4.698822185994    5.077576731161   -0.092938540283
 H   -8.915582185994    4.983316731161   -0.035198540283
NA   -2.679512185994    1.386566731161   -0.004958540283
 O    5.136077730287   -2.657726823605    0.010658866718
 C    6.167339737440   -3.367566588146    0.019608820912
 N    7.411616817856   -2.765479217546   -0.018191197816
 H    7.441363158271   -1.747983180963   -0.052536370230
 C    8.668880375838   -3.386072707488   -0.015287043691
 O    9.719833824727   -2.769595310419   -0.050884666793
 N    8.576671251900   -4.775778661774    0.032462872385
 H    9.465468476180   -5.267853083575    0.036465674057
 C    7.390665905868   -5.458750781964    0.072046848025
 H    7.469726947169   -6.546035133044    0.107149697555
 C    6.185537520405   -4.810993075552    0.067641801552
 H    5.248782558882   -5.361959858196    0.099182559066
