25

 N   -8.187879159975    4.574609401341   -0.031294665489
 C   -7.001839159975    5.257669401341   -0.068394665489
 H   -7.080879159975    6.344999401341   -0.101784665489
 C   -8.280129159975    3.184829401341    0.014045334511
 O   -9.331109159975    2.568279401341    0.047415334511
 N   -7.022859159975    2.564249401341    0.017355334511
 H   -7.052629159975    1.546689401341    0.049975334511
 C   -5.778549159975    3.166409401341   -0.018024665489
 O   -4.747289159975    2.456569401341   -0.009074665489
 C   -5.796709159975    4.609909401341   -0.063684665489
 H   -4.859919159975    5.160939401341   -0.093244665489
 H   -9.076679159975    5.066679401341   -0.035504665489
NA   -2.840609159975    1.469929401341   -0.005264665489
 O    5.330234843410   -2.758195678641    0.011062623649
 C    6.361496850562   -3.468035443182    0.020012577844
 N    7.605772550333   -2.865951297515   -0.017884131719
 H    7.635517907383   -1.848457557154   -0.052298113766
 C    8.863035883418   -3.486545318811   -0.014996206513
 O    9.913988060617   -2.870070889187   -0.050682652943
 N    8.770828140996   -4.876248051391    0.032850044108
 H    9.659625264641   -5.368322719449    0.036844910323
 C    7.584824210539   -5.559216861821    0.072533413660
 H    7.663886229619   -6.646498929061    0.107704734324
 C    6.379695997020   -4.911458753686    0.068140416369
 H    5.442942159541   -5.462422903844    0.099760443418
