25

 N   -8.228153404686    4.595450065940   -0.031371290507
 C   -7.042113404686    5.278510065940   -0.068471290507
 H   -7.121153404686    6.365840065940   -0.101861290507
 C   -8.320403404686    3.205670065940    0.013968709493
 O   -9.371383404686    2.589120065940    0.047338709493
 N   -7.063133404686    2.585090065940    0.017278709493
 H   -7.092903404686    1.567530065940    0.049898709493
 C   -5.818823404686    3.187250065940   -0.018101290507
 O   -4.787563404686    2.477410065940   -0.009151290507
 C   -5.836983404686    4.630750065940   -0.063761290507
 H   -4.900193404686    5.181780065940   -0.093321290507
 H   -9.116953404686    5.087520065940   -0.035581290507
NA   -2.880883404686    1.490770065940   -0.005341290507
 O    5.378774120475   -2.783312895346    0.011163469165
 C    6.410036127628   -3.493152659887    0.020113423359
 N    7.654311489764   -2.891069302282   -0.017806884861
 H    7.684056606333   -1.873576123037   -0.052237660796
 C    8.911574767847   -3.511663453426   -0.014922920534
 O    9.962526634057   -2.895189748940   -0.050631045454
 N    8.819367363270   -4.901365398735    0.032946841787
 H    9.708164462298   -5.393440126976    0.036939771251
 C    7.633363778992   -5.584333400374    0.072654469719
 H    7.712426037186   -6.671614909523    0.107842501656
 C    6.428235607521   -4.936575194071    0.068264413188
 H    5.491482044931   -5.487538700938    0.099903787000
