25

 N   -8.268427649869    4.616290729391   -0.031447951948
 C   -7.082387649869    5.299350729391   -0.068547951948
 H   -7.161427649869    6.386680729391   -0.101937951948
 C   -8.360677649869    3.226510729391    0.013892048052
 O   -9.411657649869    2.609960729391    0.047262048052
 N   -7.103407649869    2.605930729391    0.017202048052
 H   -7.133177649869    1.588370729391    0.049822048052
 C   -5.859097649869    3.208090729391   -0.018177951948
 O   -4.827837649869    2.498250729391   -0.009227951948
 C   -5.877257649869    4.651590729391   -0.063837951948
 H   -4.940467649869    5.202620729391   -0.093397951948
 H   -9.157227649869    5.108360729391   -0.035657951948
NA   -2.921157649869    1.511610729391   -0.005417951948
 O    5.427313397068   -2.808430113199    0.011264278257
 C    6.458575404220   -3.518269877740    0.020214232452
 N    7.702850431653   -2.916187301122   -0.017729451319
 H    7.732595309832   -1.898694677957   -0.052176862367
 C    8.960113655211   -3.536781580949   -0.014849410424
 O   10.011065213135   -2.920308595092   -0.050579008881
 N    8.867906585544   -4.926482746056    0.033043641312
 H    9.756703660167   -5.418557533942    0.037034652335
 C    7.681903344438   -5.609449946162    0.072775298279
 H    7.760965839671   -6.696730902230    0.107979883496
 C    6.476775214652   -4.961691642573    0.068388154705
 H    5.540021924563   -5.512654511921    0.100046692371
