25

 N   -8.389250388201    4.678812713015   -0.031678149721
 C   -7.203210388201    5.361872713015   -0.068778149721
 H   -7.282250388201    6.449202713015   -0.102168149721
 C   -8.481500388201    3.289032713015    0.013661850279
 O   -9.532480388201    2.672482713015    0.047031850279
 N   -7.224230388201    2.668452713015    0.016971850279
 H   -7.254000388201    1.650892713015    0.049591850279
 C   -5.979920388201    3.270612713015   -0.018408149721
 O   -4.948660388201    2.560772713015   -0.009458149721
 C   -5.998080388201    4.714112713015   -0.064068149721
 H   -5.061290388201    5.265142713015   -0.093628149721
 H   -9.278050388201    5.170882713015   -0.035888149721
NA   -3.041980388201    1.574132713015   -0.005648149721
 O    5.572931224064   -2.883781773488    0.011566492087
 C    6.604193231216   -3.593621538029    0.020516446282
 N    7.848467271764   -2.991541262869   -0.017496056691
 H    7.878211447034   -1.974050278391   -0.051992442642
 C    9.105730334543   -3.612135921914   -0.014627566647
 O   10.156680983473   -2.995665053751   -0.050420384649
 N    9.013524252367   -5.001834787881    0.033334050703
 H    9.902321255017   -5.493909751543    0.037319413704
 C    7.827522023126   -5.684799625983    0.073136450775
 H    7.906585217276   -6.772078952199    0.108389769969
 C    6.622394016245   -5.037041035706    0.068757883144
 H    5.685641529648   -5.588002026370    0.100472840495
