16

 N    0.298317571248    1.807524243803    0.040745052281
 C    1.668932983657    2.006998921644    0.037113417905
 H    1.990717279995    3.050743852520    0.058532233598
 C   -0.301397698181    0.554409084250    0.016215061625
 O   -1.519171729713    0.387466378183    0.017211142399
 N    0.623908317430   -0.482368525592   -0.011441475364
 H    0.229334609567   -1.420882835441   -0.031950348762
 C    2.029638695825   -0.396329813274   -0.019889526155
 O    2.717959368253   -1.419947035076   -0.047997464708
 C    2.559407876890    0.972059055460    0.008716842979
 C    4.051697770496    1.155917380922    0.003886033153
 H    4.313245399576    2.224345257790    0.026540201300
 H    4.491842084086    0.697597161500   -0.895222218293
 H    4.502702977205    0.657430895616    0.875822870066
 H   -0.343988652081    2.591777281977    0.060640470571
RB   -1.972523806147   -0.723345063802   -0.006660077698
