16

 N    0.343937475730    1.919302957337    0.043147164982
 C    1.714552888139    2.118777635178    0.039515530606
 H    2.036337184477    3.162522566054    0.060934346299
 C   -0.255777793699    0.666187797784    0.018617174326
 O   -1.473551825231    0.499245091717    0.019613255100
 N    0.669528221912   -0.370589812058   -0.009039362663
 H    0.274954514049   -1.309104121907   -0.029548236061
 C    2.075258600307   -0.284551099740   -0.017487413454
 O    2.763579272735   -1.308168321542   -0.045595352007
 C    2.605027781372    1.083837768994    0.011118955680
 C    4.097317674978    1.267696094456    0.006288145854
 H    4.358865304058    2.336123971324    0.028942314001
 H    4.537461988568    0.809375875034   -0.892820105592
 H    4.548322881687    0.769209609150    0.878224982767
 H   -0.298368747599    2.703555995511    0.063042583272
RB   -2.040241920773   -0.889269210765   -0.010225770021
