16

 N    0.404764015040    2.068341242047    0.046349981916
 C    1.775379427449    2.267815919888    0.042718347540
 H    2.097163723787    3.311560850764    0.064137163233
 C   -0.194951254389    0.815226082494    0.021819991260
 O   -1.412725285921    0.648283376427    0.022816072034
 N    0.730354761222   -0.221551527348   -0.005836545729
 H    0.335781053359   -1.160065837197   -0.026345419127
 C    2.136085139617   -0.135512815030   -0.014284596520
 O    2.824405812045   -1.159130036832   -0.042392535073
 C    2.665854320682    1.232876053704    0.014321772614
 C    4.158144214288    1.416734379166    0.009490962788
 H    4.419691843368    2.485162256034    0.032145130935
 H    4.598288527878    0.958414159744   -0.889617288658
 H    4.609149420997    0.918247893860    0.881427799701
 H   -0.237542208289    2.852594280221    0.066245400206
RB   -2.130532740274   -1.110501406715   -0.014980026453
