16

 N    1.636501436066    5.086366507445    0.111207024836
 C    3.007116848475    5.285841185286    0.107575390460
 H    3.328901144813    6.329586116162    0.128994206153
 C    1.036786166637    3.833251347892    0.086677034180
 O   -0.180987864895    3.666308641825    0.087673114954
 N    1.962092182248    2.796473738050    0.059020497191
 H    1.567518474385    1.857959428201    0.038511623793
 C    3.367822560643    2.882512450368    0.050572446400
 O    4.056143233071    1.858895228566    0.022464507847
 C    3.897591741708    4.250901319102    0.079178815534
 C    5.389881635314    4.434759644564    0.074348005708
 H    5.651429264394    5.503187521432    0.097002173855
 H    5.830025948904    3.976439425142   -0.824760245738
 H    5.840886842023    3.936273159258    0.946284842621
 H    0.994195212737    5.870619545619    0.131102443126
RB   -3.958921835174   -5.590453374716   -0.111253719188
