16

 N    0.435177284695    2.142860384403    0.047951390383
 C    1.805792697104    2.342335062244    0.044319756007
 H    2.127576993442    3.386079993120    0.065738571700
 C   -0.164537984734    0.889745224850    0.023421399727
 O   -1.382312016266    0.722802518783    0.024417480501
 N    0.760768030877   -0.147032384992   -0.004235137262
 H    0.366194323014   -1.085546694841   -0.024744010660
 C    2.166498409272   -0.060993672674   -0.012683188053
 O    2.854819081700   -1.084610894476   -0.040791126606
 C    2.696267590337    1.307395196060    0.015923181081
 C    4.188557483943    1.491253521522    0.011092371255
 H    4.450105113023    2.559681398390    0.033746539402
 H    4.628701797533    1.032933302100   -0.888015880191
 H    4.639562690652    0.992767036216    0.883029208168
 H   -0.207128938634    2.927113422577    0.067846808673
RB   -2.175678150025   -1.221117504691   -0.017357154668
