16

 N    0.450383919523    2.180119955581    0.048752094617
 C    1.820999331932    2.379594633422    0.045120460241
 H    2.142783628270    3.423339564298    0.066539275934
 C   -0.149331349906    0.927004796028    0.024222103961
 O   -1.367105381438    0.760062089961    0.025218184735
 N    0.775974665705   -0.109772813814   -0.003434433028
 H    0.381400957842   -1.048287123663   -0.023943306426
 C    2.181705044100   -0.023734101496   -0.011882483819
 O    2.870025716528   -1.047351323298   -0.039990422372
 C    2.711474225165    1.344654767238    0.016723885315
 C    4.203764118771    1.528513092700    0.011893075489
 H    4.465311747851    2.596940969568    0.034547243636
 H    4.643908432361    1.070192873278   -0.887215175957
 H    4.654769325480    1.030026607394    0.883829912402
 H   -0.191922303806    2.964372993755    0.068647512907
RB   -2.198250854900   -1.276425553678   -0.018545718776
