16

 N    0.526417093660    2.366417811469    0.052755615785
 C    1.897032506069    2.565892489310    0.049123981409
 H    2.218816802407    3.609637420186    0.070542797102
 C   -0.073298175769    1.113302651916    0.028225625129
 O   -1.291072207301    0.946359945849    0.029221705903
 N    0.852007839842    0.076525042074    0.000569088140
 H    0.457434131979   -0.861989267775   -0.019939785258
 C    2.257738218237    0.162563754392   -0.007878962651
 O    2.946058890665   -0.861053467410   -0.035986901204
 C    2.787507399302    1.530952623126    0.020727406483
 C    4.279797292908    1.714810948588    0.015896596657
 H    4.541344921988    2.783238825456    0.038550764804
 H    4.719941606498    1.256490729166   -0.883211654789
 H    4.730802499617    1.216324463282    0.887833433570
 H   -0.115889129669    3.150670849643    0.072651034075
RB   -2.311114379276   -1.552965798616   -0.024488539315
