16

 N    0.572036998143    2.478196525003    0.055157728486
 C    1.942652410552    2.677671202844    0.051526094110
 H    2.264436706890    3.721416133720    0.072944909803
 C   -0.027678271286    1.225081365450    0.030627737830
 O   -1.245452302818    1.058138659383    0.031623818604
 N    0.897627744325    0.188303755608    0.002971200841
 H    0.503054036462   -0.750210554241   -0.017537672557
 C    2.303358122720    0.274342467926   -0.005476849950
 O    2.991678795148   -0.749274753876   -0.033584788503
 C    2.833127303785    1.642731336660    0.023129519184
 C    4.325417197391    1.826589662122    0.018298709358
 H    4.586964826471    2.895017538990    0.040952877505
 H    4.765561510981    1.368269442700   -0.880809542088
 H    4.776422404100    1.328103176816    0.890235546271
 H   -0.070269225186    3.262449563177    0.075053146776
RB   -2.378832493902   -1.718889945579   -0.028054231639
