16

 N    0.602450267797    2.552715667358    0.056759136953
 C    1.973065680206    2.752190345199    0.053127502577
 H    2.294849976544    3.795935276075    0.074546318270
 C    0.002734998368    1.299600507805    0.032229146297
 O   -1.215039033164    1.132657801738    0.033225227071
 N    0.928041013979    0.262822897963    0.004572609308
 H    0.533467306116   -0.675691411886   -0.015936264090
 C    2.333771392374    0.348861610281   -0.003875441483
 O    3.022092064802   -0.674755611521   -0.031983380036
 C    2.863540573439    1.717250479015    0.024730927651
 C    4.355830467045    1.901108804477    0.019900117825
 H    4.617378096125    2.969536681345    0.042554285972
 H    4.795974780635    1.442788585055   -0.879208133621
 H    4.806835673754    1.402622319171    0.891836954738
 H   -0.039855955532    3.336968705532    0.076654555243
RB   -2.423977903653   -1.829506043555   -0.030431359855
