16

 N    0.648070172280    2.664494380891    0.059161249654
 C    2.018685584689    2.863969058732    0.055529615278
 H    2.340469881027    3.907713989608    0.076948430971
 C    0.048354902851    1.411379221338    0.034631258998
 O   -1.169419128681    1.244436515271    0.035627339772
 N    0.973660918462    0.374601611496    0.006974722009
 H    0.579087210599   -0.563912698353   -0.013534151389
 C    2.379391296857    0.460640323814   -0.001473328782
 O    3.067711969285   -0.562976897988   -0.029581267335
 C    2.909160477922    1.829029192548    0.027133040352
 C    4.401450371528    2.012887518010    0.022302230526
 H    4.662998000608    3.081315394878    0.044956398673
 H    4.841594685118    1.554567298588   -0.876806020920
 H    4.852455578237    1.514401032704    0.894239067439
 H    0.005763948951    3.448747419065    0.079056667944
RB   -2.491696018279   -1.995430190518   -0.033997052178
