16

 N    0.678483441935    2.739013523247    0.060762658121
 C    2.049098854344    2.938488201088    0.057131023745
 H    2.370883150682    3.982233131964    0.078549839438
 C    0.078768172506    1.485898363694    0.036232667465
 O   -1.139005859026    1.318955657627    0.037228748239
 N    1.004074188117    0.449120753852    0.008576130476
 H    0.609500480254   -0.489393555997   -0.011932742922
 C    2.409804566512    0.535159466170    0.000128079685
 O    3.098125238940   -0.488457755632   -0.027979858868
 C    2.939573747577    1.903548334904    0.028734448819
 C    4.431863641183    2.087406660366    0.023903638993
 H    4.693411270263    3.155834537234    0.046557807140
 H    4.872007954773    1.629086440944   -0.875204612453
 H    4.882868847892    1.588920175060    0.895840475906
 H    0.036177218606    3.523266561421    0.080658076411
RB   -2.536841428030   -2.106046288493   -0.036374180394
