16

 N    0.739309981245    2.888051807958    0.063965475055
 C    2.109925393654    3.087526485799    0.060333840679
 H    2.431709689992    4.131271416675    0.081752656372
 C    0.139594711816    1.634936648405    0.039435484399
 O   -1.078179319716    1.467993942338    0.040431565173
 N    1.064900727427    0.598159038563    0.011778947410
 H    0.670327019564   -0.340355271286   -0.008729925988
 C    2.470631105822    0.684197750881    0.003330896619
 O    3.158951778250   -0.339419470921   -0.024777041934
 C    3.000400286887    2.052586619615    0.031937265753
 C    4.492690180493    2.236444945077    0.027106455927
 H    4.754237809573    3.304872821945    0.049760624074
 H    4.932834494083    1.778124725655   -0.872001795519
 H    4.943695387202    1.737958459771    0.899043292840
 H    0.097003757916    3.672304846132    0.083860893345
RB   -2.627132247531   -2.327278484444   -0.041128436825
