16

 N    0.754516616072    2.925311379136    0.064766179289
 C    2.125132028481    3.124786056977    0.061134544913
 H    2.446916324819    4.168530987853    0.082553360606
 C    0.154801346643    1.672196219583    0.040236188633
 O   -1.062972684889    1.505253513516    0.041232269407
 N    1.080107362254    0.635418609741    0.012579651644
 H    0.685533654391   -0.303095700108   -0.007929221754
 C    2.485837740649    0.721457322059    0.004131600853
 O    3.174158413077   -0.302159899743   -0.023976337700
 C    3.015606921714    2.089846190793    0.032737969987
 C    4.507896815320    2.273704516255    0.027907160161
 H    4.769444444400    3.342132393123    0.050561328308
 H    4.948041128910    1.815384296833   -0.871201091285
 H    4.958902022029    1.775218030949    0.899843997074
 H    0.112210392743    3.709564417310    0.084661597579
RB   -2.649704952406   -2.382586533431   -0.042317000933
