16

 N    0.769723250900    2.962570950313    0.065566883522
 C    2.140338663309    3.162045628154    0.061935249146
 H    2.462122959647    4.205790559030    0.083354064839
 C    0.170007981471    1.709455790760    0.041036892866
 O   -1.047766050061    1.542513084693    0.042032973640
 N    1.095313997082    0.672678180918    0.013380355877
 H    0.700740289219   -0.265836128931   -0.007128517521
 C    2.501044375477    0.758716893236    0.004932305086
 O    3.189365047905   -0.264900328566   -0.023175633467
 C    3.030813556542    2.127105761970    0.033538674220
 C    4.523103450148    2.310964087432    0.028707864394
 H    4.784651079228    3.379391964300    0.051362032541
 H    4.963247763738    1.852643868010   -0.870400387052
 H    4.974108656857    1.812477602126    0.900644701307
 H    0.127417027571    3.746823988487    0.085462301812
RB   -2.672277657281   -2.437894582419   -0.043505565041
