16

 N    0.800136520555    3.037090092669    0.067168291989
 C    2.170751932964    3.236564770510    0.063536657613
 H    2.492536229302    4.280309701386    0.084955473306
 C    0.200421251126    1.783974933116    0.042638301333
 O   -1.017352780406    1.617032227049    0.043634382107
 N    1.125727266737    0.747197323274    0.014981764344
 H    0.731153558874   -0.191316986575   -0.005527109054
 C    2.531457645132    0.833236035592    0.006533713553
 O    3.219778317560   -0.190381186210   -0.021574225000
 C    3.061226826197    2.201624904326    0.035140082687
 C    4.553516719803    2.385483229788    0.030309272861
 H    4.815064348883    3.453911106656    0.052963441008
 H    4.993661033393    1.927163010366   -0.868798978585
 H    5.004521926512    1.886996744482    0.902246109774
 H    0.157830297226    3.821343130843    0.087063710279
RB   -2.717423067032   -2.548510680394   -0.045882693257
