16

 N    0.815343155382    3.074349663847    0.067968996223
 C    2.185958567791    3.273824341688    0.064337361847
 H    2.507742864129    4.317569272564    0.085756177540
 C    0.215627885953    1.821234504294    0.043439005567
 O   -1.002146145579    1.654291798227    0.044435086341
 N    1.140933901564    0.784456894452    0.015782468578
 H    0.746360193701   -0.154057415397   -0.004726404820
 C    2.546664279959    0.870495606770    0.007334417787
 O    3.234984952387   -0.153121615032   -0.020773520766
 C    3.076433461024    2.238884475504    0.035940786921
 C    4.568723354630    2.422742800966    0.031109977095
 H    4.830270983710    3.491170677834    0.053764145242
 H    5.008867668220    1.964422581544   -0.867998274351
 H    5.019728561339    1.924256315660    0.903046814008
 H    0.173036932053    3.858602702021    0.087864414513
RB   -2.739995771907   -2.603818729382   -0.047071257364
