16

 N    0.860963059865    3.186128377380    0.070371108924
 C    2.231578472274    3.385603055221    0.066739474548
 H    2.553362768612    4.429347986097    0.088158290241
 C    0.261247790436    1.933013217827    0.045841118268
 O   -0.956526241096    1.766070511760    0.046837199042
 N    1.186553806047    0.896235607985    0.018184581279
 H    0.791980098184   -0.042278701864   -0.002324292119
 C    2.592284184442    0.982274320303    0.009736530488
 O    3.280604856870   -0.041342901499   -0.018371408065
 C    3.122053365507    2.350663189037    0.038342899622
 C    4.614343259113    2.534521514499    0.033512089796
 H    4.875890888193    3.602949391367    0.056166257943
 H    5.054487572703    2.076201295077   -0.865596161650
 H    5.065348465822    2.036035029193    0.905448926709
 H    0.218656836536    3.970381415554    0.090266527214
RB   -2.807713886533   -2.769742876345   -0.050636949688
