16

 N    0.891376329520    3.260647519735    0.071972517391
 C    2.261991741929    3.460122197576    0.068340883015
 H    2.583776038267    4.503867128452    0.089759698708
 C    0.291661060091    2.007532360182    0.047442526735
 O   -0.926112971441    1.840589654115    0.048438607509
 N    1.216967075702    0.970754750340    0.019785989746
 H    0.822393367839    0.032240440491   -0.000722883652
 C    2.622697454097    1.056793462658    0.011337938955
 O    3.311018126525    0.033176240856   -0.016769999598
 C    3.152466635162    2.425182331392    0.039944308089
 C    4.644756528768    2.609040656854    0.035113498263
 H    4.906304157848    3.677468533722    0.057767666410
 H    5.084900842358    2.150720437432   -0.863994753183
 H    5.095761735477    2.110554171548    0.907050335176
 H    0.249070106191    4.044900557909    0.091867935681
RB   -2.852859296284   -2.880358974320   -0.053014077904
