16

 N    0.921789599175    3.335166662091    0.073573925858
 C    2.292405011584    3.534641339932    0.069942291482
 H    2.614189307922    4.578386270808    0.091361107175
 C    0.322074329746    2.082051502538    0.049043935202
 O   -0.895699701786    1.915108796471    0.050040015976
 N    1.247380345357    1.045273892696    0.021387398213
 H    0.852806637494    0.106759582847    0.000878524815
 C    2.653110723752    1.131312605014    0.012939347422
 O    3.341431396180    0.107695383212   -0.015168591131
 C    3.182879904817    2.499701473748    0.041545716556
 C    4.675169798423    2.683559799210    0.036714906730
 H    4.936717427503    3.751987676078    0.059369074877
 H    5.115314112013    2.225239579788   -0.862393344716
 H    5.126175005132    2.185073313904    0.908651743643
 H    0.279483375846    4.119419700265    0.093469344148
RB   -2.898004706035   -2.990975072296   -0.055391206119
