16

 N    0.952202868830    3.409685804446    0.075175334325
 C    2.322818281239    3.609160482287    0.071543699949
 H    2.644602577577    4.652905413163    0.092962515642
 C    0.352487599401    2.156570644893    0.050645343669
 O   -0.865286432131    1.989627938826    0.051641424443
 N    1.277793615012    1.119793035051    0.022988806680
 H    0.883219907149    0.181278725202    0.002479933282
 C    2.683523993407    1.205831747369    0.014540755889
 O    3.371844665835    0.182214525567   -0.013567182664
 C    3.213293174472    2.574220616103    0.043147125023
 C    4.705583068078    2.758078941565    0.038316315197
 H    4.967130697158    3.826506818433    0.060970483344
 H    5.145727381668    2.299758722143   -0.860791936249
 H    5.156588274787    2.259592456259    0.910253152110
 H    0.309896645501    4.193938842620    0.095070752615
RB   -2.943150115785   -3.101591170271   -0.057768334335
