16

 N    0.967409503657    3.446945375624    0.075976038559
 C    2.338024916066    3.646420053465    0.072344404183
 H    2.659809212404    4.690164984341    0.093763219876
 C    0.367694234228    2.193830216071    0.051446047903
 O   -0.850079797304    2.026887510004    0.052442128677
 N    1.293000249839    1.157052606229    0.023789510914
 H    0.898426541976    0.218538296380    0.003280637516
 C    2.698730628234    1.243091318547    0.015341460123
 O    3.387051300662    0.219474096745   -0.012766478430
 C    3.228499809299    2.611480187281    0.043947829257
 C    4.720789702905    2.795338512743    0.039117019431
 H    4.982337331985    3.863766389611    0.061771187578
 H    5.160934016495    2.337018293321   -0.859991232015
 H    5.171794909614    2.296852027437    0.911053856344
 H    0.325103280328    4.231198413798    0.095871456849
RB   -2.965722820660   -3.156899219259   -0.058956898443
