16

 N    1.089062582277    3.745021945046    0.082381672427
 C    2.459677994686    3.944496622887    0.078750038051
 H    2.781462291024    4.988241553763    0.100168853744
 C    0.489347312848    2.491906785493    0.057851681771
 O   -0.728426718684    2.324964079426    0.058847762545
 N    1.414653328459    1.455129175651    0.030195144782
 H    1.020079620596    0.516614865802    0.009686271384
 C    2.820383706854    1.541167887969    0.021747093991
 O    3.508704379282    0.517550666167   -0.006360844562
 C    3.350152887919    2.909556756703    0.050353463125
 C    4.842442781525    3.093415082165    0.045522653299
 H    5.103990410605    4.161842959033    0.068176821446
 H    5.282587095115    2.635094862743   -0.853585598147
 H    5.293447988234    2.594928596859    0.917459490212
 H    0.446756358948    4.529274983220    0.102277090717
RB   -3.146304459663   -3.599363611160   -0.068465411306
