16

 N    1.104269217104    3.782281516224    0.083182376661
 C    2.474884629513    3.981756194065    0.079550742285
 H    2.796668925851    5.025501124941    0.100969557978
 C    0.504553947675    2.529166356671    0.058652386005
 O   -0.713220083857    2.362223650604    0.059648466779
 N    1.429859963286    1.492388746829    0.030995849016
 H    1.035286255423    0.553874436980    0.010486975618
 C    2.835590341681    1.578427459147    0.022547798225
 O    3.523911014109    0.554810237345   -0.005560140328
 C    3.365359522746    2.946816327881    0.051154167359
 C    4.857649416352    3.130674653343    0.046323357533
 H    5.119197045432    4.199102530211    0.068977525680
 H    5.297793729942    2.672354433921   -0.852784893913
 H    5.308654623061    2.632188168037    0.918260194446
 H    0.461962993775    4.566534554398    0.103077794951
RB   -3.168877164538   -3.654671660147   -0.069653975413
