16

 N    1.119475851932    3.819541087402    0.083983080894
 C    2.490091264341    4.019015765243    0.080351446518
 H    2.811875560679    5.062760696119    0.101770262211
 C    0.519760582503    2.566425927849    0.059453090238
 O   -0.698013449029    2.399483221782    0.060449171012
 N    1.445066598114    1.529648318007    0.031796553249
 H    1.050492890251    0.591134008158    0.011287679851
 C    2.850796976509    1.615687030325    0.023348502458
 O    3.539117648937    0.592069808523   -0.004759436095
 C    3.380566157574    2.984075899059    0.051954871592
 C    4.872856051180    3.167934224521    0.047124061766
 H    5.134403680260    4.236362101389    0.069778229913
 H    5.313000364770    2.709614005099   -0.851984189680
 H    5.323861257889    2.669447739215    0.919060898679
 H    0.477169628603    4.603794125576    0.103878499184
RB   -3.191449869414   -3.709979709135   -0.070842539521
