16

 N    1.134682486759    3.856800658579    0.084783785128
 C    2.505297899168    4.056275336420    0.081152150752
 H    2.827082195506    5.100020267296    0.102570966445
 C    0.534967217330    2.603685499026    0.060253794472
 O   -0.682806814202    2.436742792959    0.061249875246
 N    1.460273232941    1.566907889184    0.032597257483
 H    1.065699525078    0.628393579335    0.012088384085
 C    2.866003611336    1.652946601502    0.024149206692
 O    3.554324283764    0.629329379700   -0.003958731861
 C    3.395772792401    3.021335470236    0.052755575826
 C    4.888062686007    3.205193795698    0.047924766000
 H    5.149610315087    4.273621672566    0.070578934147
 H    5.328206999597    2.746873576276   -0.851183485446
 H    5.339067892716    2.706707310392    0.919861602913
 H    0.492376263430    4.641053696753    0.104679203418
RB   -3.214022574289   -3.765287758123   -0.072031103629
