16

 N    1.180302391242    3.968579372113    0.087185897829
 C    2.550917803651    4.168054049954    0.083554263453
 H    2.872702099989    5.211798980830    0.104973079146
 C    0.580587121813    2.715464212560    0.062655907173
 O   -0.637186909719    2.548521506493    0.063651987947
 N    1.505893137424    1.678686602718    0.034999370184
 H    1.111319429561    0.740172292869    0.014490496786
 C    2.911623515819    1.764725315036    0.026551319393
 O    3.599944188247    0.741108093234   -0.001556619160
 C    3.441392696884    3.133114183770    0.055157688527
 C    4.933682590490    3.316972509232    0.050326878701
 H    5.195230219570    4.385400386100    0.072981046848
 H    5.373826904080    2.858652289810   -0.848781372745
 H    5.384687797199    2.818486023926    0.922263715614
 H    0.537996167913    4.752832410287    0.107081316119
RB   -3.281740688915   -3.931211905086   -0.075596795953
