16

 N    1.195509026069    4.005838943290    0.087986602062
 C    2.566124438478    4.205313621131    0.084354967686
 H    2.887908734816    5.249058552007    0.105773783379
 C    0.595793756640    2.752723783737    0.063456611406
 O   -0.621980274892    2.585781077670    0.064452692180
 N    1.521099772251    1.715946173895    0.035800074417
 H    1.126526064388    0.777431864046    0.015291201019
 C    2.926830150646    1.801984886213    0.027352023626
 O    3.615150823074    0.778367664411   -0.000755914927
 C    3.456599331711    3.170373754947    0.055958392760
 C    4.948889225317    3.354232080409    0.051127582934
 H    5.210436854397    4.422659957277    0.073781751081
 H    5.389033538907    2.895911860987   -0.847980668512
 H    5.399894432026    2.855745595103    0.923064419847
 H    0.553202802740    4.790091981464    0.107882020352
RB   -3.304313393790   -3.986519954073   -0.076785360060
