16

 N    1.210715660897    4.043098514468    0.088787306296
 C    2.581331073306    4.242573192309    0.085155671920
 H    2.903115369644    5.286318123185    0.106574487613
 C    0.611000391468    2.789983354915    0.064257315640
 O   -0.606773640064    2.623040648848    0.065253396414
 N    1.536306407079    1.753205745073    0.036600778651
 H    1.141732699216    0.814691435224    0.016091905253
 C    2.942036785474    1.839244457391    0.028152727860
 O    3.630357457902    0.815627235589    0.000044789307
 C    3.471805966539    3.207633326125    0.056759096994
 C    4.964095860145    3.391491651587    0.051928287168
 H    5.225643489225    4.459919528455    0.074582455315
 H    5.404240173735    2.933171432165   -0.847179964278
 H    5.415101066854    2.893005166281    0.923865124081
 H    0.568409437568    4.827351552642    0.108682724586
RB   -3.326886098665   -4.041828003061   -0.077973924168
