16

 N    1.301955469862    4.266655941534    0.093591531697
 C    2.672570882271    4.466130619375    0.089959897321
 H    2.994355178609    5.509875550251    0.111378713014
 C    0.702240200433    3.013540781981    0.069061541041
 O   -0.515533831099    2.846598075914    0.070057621815
 N    1.627546216044    1.976763172139    0.041405004052
 H    1.232972508181    1.038248862290    0.020896130654
 C    3.033276594439    2.062801884457    0.032956953261
 O    3.721597266867    1.039184662655    0.004849014708
 C    3.563045775504    3.431190753191    0.061563322395
 C    5.055335669110    3.615049078653    0.056732512569
 H    5.316883298190    4.683476955521    0.079386680716
 H    5.495479982700    3.156728859231   -0.842375738877
 H    5.506340875819    3.116562593347    0.928669349482
 H    0.659649246533    5.050908979708    0.113486949987
RB   -3.462322327917   -4.373676296987   -0.085105308815
