16

 N    1.332368739517    4.341175083890    0.095192940165
 C    2.702984151926    4.540649761731    0.091561305789
 H    3.024768448264    5.584394692607    0.112980121482
 C    0.732653470088    3.088059924337    0.070662949509
 O   -0.485120561444    2.921117218270    0.071659030283
 N    1.657959485699    2.051282314495    0.043006412520
 H    1.263385777836    1.112768004646    0.022497539122
 C    3.063689864094    2.137321026813    0.034558361729
 O    3.752010536522    1.113703805011    0.006450423176
 C    3.593459045159    3.505709895547    0.063164730863
 C    5.085748938765    3.689568221009    0.058333921037
 H    5.347296567845    4.757996097877    0.080988089184
 H    5.525893252355    3.231248001587   -0.840774330409
 H    5.536754145474    3.191081735703    0.930270757950
 H    0.690062516188    5.125428122064    0.115088358455
RB   -3.507467737668   -4.484292394962   -0.087482437031
