16

 N    1.393195278827    4.490213368601    0.098395757099
 C    2.763810691236    4.689688046442    0.094764122723
 H    3.085594987574    5.733432977318    0.116182938416
 C    0.793480009398    3.237098209048    0.073865766443
 O   -0.424294022134    3.070155502981    0.074861847217
 N    1.718786025009    2.200320599206    0.046209229454
 H    1.324212317146    1.261806289357    0.025700356056
 C    3.124516403404    2.286359311524    0.037761178663
 O    3.812837075832    1.262742089722    0.009653240110
 C    3.654285584469    3.654748180258    0.066367547797
 C    5.146575478075    3.838606505720    0.061536737971
 H    5.408123107155    4.907034382588    0.084190906118
 H    5.586719791665    3.380286286298   -0.837571513475
 H    5.597580684784    3.340120020414    0.933473574884
 H    0.750889055498    5.274466406775    0.118291175389
RB   -3.597758557169   -4.705524590913   -0.092236693462
