16

 N    1.484435087792    4.713770795667    0.103199982500
 C    2.855050500201    4.913245473508    0.099568348124
 H    3.176834796539    5.956990404384    0.120987163817
 C    0.884719818363    3.460655636114    0.078669991844
 O   -0.333054213169    3.293712930047    0.079666072618
 N    1.810025833974    2.423878026272    0.051013454855
 H    1.415452126111    1.485363716423    0.030504581457
 C    3.215756212369    2.509916738590    0.042565404064
 O    3.904076884797    1.486299516788    0.014457465511
 C    3.745525393434    3.878305607324    0.071171773198
 C    5.237815287040    4.062163932786    0.066340963372
 H    5.499362916120    5.130591809654    0.088995131519
 H    5.677959600630    3.603843713364   -0.832767288074
 H    5.688820493749    3.563677447480    0.938277800285
 H    0.842128864463    5.498023833841    0.123095400790
RB   -3.733194786421   -5.037372884839   -0.099368078109
