16

 N    1.499641722619    4.751030366845    0.104000686734
 C    2.870257135028    4.950505044686    0.100369052358
 H    3.192041431366    5.994249975562    0.121787868051
 C    0.899926453190    3.497915207292    0.079470696078
 O   -0.317847578342    3.330972501225    0.080466776852
 N    1.825232468801    2.461137597450    0.051814159089
 H    1.430658760938    1.522623287601    0.031305285691
 C    3.230962847196    2.547176309768    0.043366108298
 O    3.919283519624    1.523559087966    0.015258169745
 C    3.760732028261    3.915565178502    0.071972477432
 C    5.253021921867    4.099423503964    0.067141667606
 H    5.514569550947    5.167851380832    0.089795835753
 H    5.693166235457    3.641103284542   -0.831966583840
 H    5.704027128576    3.600937018658    0.939078504519
 H    0.857335499290    5.535283405019    0.123896105024
RB   -3.755767491296   -5.092680933827   -0.100556642217
