16

 N    1.545261627102    4.862809080378    0.106402799435
 C    2.915877039511    5.062283758219    0.102771165059
 H    3.237661335849    6.106028689095    0.124189980752
 C    0.945546357673    3.609693920825    0.081872808779
 O   -0.272227673859    3.442751214758    0.082868889553
 N    1.870852373284    2.572916310983    0.054216271790
 H    1.476278665421    1.634402001134    0.033707398392
 C    3.276582751679    2.658955023301    0.045768220999
 O    3.964903424107    1.635337801499    0.017660282446
 C    3.806351932744    4.027343892035    0.074374590133
 C    5.298641826350    4.211202217497    0.069543780307
 H    5.560189455430    5.279630094365    0.092197948454
 H    5.738786139940    3.752881998075   -0.829564471139
 H    5.749647033059    3.712715732191    0.941480617220
 H    0.902955403773    5.647062118552    0.126298217725
RB   -3.823485605922   -5.258605080790   -0.104122334541
