16

 N    1.560468261929    4.900068651556    0.107203503668
 C    2.931083674338    5.099543329397    0.103571869292
 H    3.252867970676    6.143288260273    0.124990684985
 C    0.960752992500    3.646953492003    0.082673513012
 O   -0.257021039032    3.480010785936    0.083669593786
 N    1.886059008111    2.610175882161    0.055016976023
 H    1.491485300248    1.671661572312    0.034508102625
 C    3.291789386506    2.696214594479    0.046568925232
 O    3.980110058934    1.672597372677    0.018460986679
 C    3.821558567571    4.064603463213    0.075175294366
 C    5.313848461177    4.248461788675    0.070344484540
 H    5.575396090257    5.316889665543    0.092998652687
 H    5.753992774767    3.790141569253   -0.828763766906
 H    5.764853667886    3.749975303369    0.942281321453
 H    0.918162038600    5.684321689730    0.127098921958
RB   -3.846058310798   -5.313913129777   -0.105310898649
