19

 C   -0.132677321884    5.647103595336    0.194326435064
 H    0.254142678116    6.648723595336    0.360036435064
 C    0.489702678116    4.421013595336   -0.000693564936
 H    1.555402678116    4.211823595336    0.020986435064
 N   -1.479357321884    5.377263595336    0.076646435064
 H   -2.230687321884    6.051243595336    0.171576435064
 C   -1.628507321884    4.041203595336   -0.166993564936
 H   -2.601287321884    3.574603595336   -0.289503564936
 N   -0.443367321884    3.414893595336   -0.201193564936
RB    0.134332678116   -1.034646404664    0.060956435064
 N    0.275719866254   -2.123633680255    0.125115429993
 C   -0.657355366280   -3.129753138388   -0.075377821758
 H   -1.723051892213   -2.920564570011   -0.097060071968
 C   -0.034973865274   -4.355851927898   -0.270398112923
 H   -0.421790814459   -5.357473053954   -0.436102405447
 N    1.311706327220   -4.086016407418   -0.152719051775
 H    2.063034709008   -4.759991953840   -0.247653312950
 C    1.460863832656   -2.749948440500    0.090914803173
 H    2.433634045730   -2.283348686220    0.213421351005
