19

 C   -0.136634624658    5.677583389318    0.192530681347
 H    0.250185375342    6.679203389318    0.358240681347
 C    0.485745375342    4.451493389318   -0.002489318653
 H    1.551445375342    4.242303389318    0.019190681347
 N   -1.483314624658    5.407743389318    0.074850681347
 H   -2.234644624658    6.081723389318    0.169780681347
 C   -1.632464624658    4.071683389318   -0.168789318653
 H   -2.605244624658    3.605083389318   -0.291299318653
 N   -0.447324624658    3.445373389318   -0.202989318653
RB    0.130375375342   -1.004166610682    0.059160681347
 N    0.284615944220   -2.192152729509    0.129152312179
 C   -0.648459288314   -3.198272187642   -0.071340939572
 H   -1.714155814247   -2.989083619265   -0.093023189782
 C   -0.026077787307   -4.424370977152   -0.266361230737
 H   -0.412894736492   -5.425992103209   -0.432065523261
 N    1.320602405186   -4.154535456672   -0.148682169589
 H    2.071930786974   -4.828511003095   -0.243616430764
 C    1.469759910622   -2.818467489754    0.094951685359
 H    2.442530123696   -2.351867735474    0.217458233191
