19

 C   -0.144549230205    5.738542977281    0.188939173914
 H    0.242270769795    6.740162977281    0.354649173914
 C    0.477830769795    4.512452977281   -0.006080826086
 H    1.543530769795    4.303262977281    0.015599173914
 N   -1.491229230205    5.468702977281    0.071259173914
 H   -2.242559230205    6.142682977281    0.166189173914
 C   -1.640379230205    4.132642977281   -0.172380826086
 H   -2.613159230205    3.666042977281   -0.294890826086
 N   -0.455239230205    3.506332977281   -0.206580826086
RB    0.122460769795   -0.943207022719    0.055569173914
 N    0.302408100153   -2.329190828017    0.137226076551
 C   -0.630667132381   -3.335310286150   -0.063267175200
 H   -1.696363658314   -3.126121717773   -0.084949425410
 C   -0.008285631375   -4.561409075661   -0.258287466365
 H   -0.395102580560   -5.563030201717   -0.423991758889
 N    1.338394561119   -4.291573555180   -0.140608405217
 H    2.089722942907   -4.965549101603   -0.235542666392
 C    1.487552066554   -2.955505588262    0.103025449731
 H    2.460322279629   -2.488905833983    0.225531997563
