19

 C   -0.148506532979    5.769022771262    0.187143420197
 H    0.238313467021    6.770642771262    0.352853420197
 C    0.473873467021    4.542932771262   -0.007876579803
 H    1.539573467021    4.333742771262    0.013803420197
 N   -1.495186532979    5.499182771262    0.069463420197
 H   -2.246516532979    6.173162771262    0.164393420197
 C   -1.644336532979    4.163122771262   -0.174176579803
 H   -2.617116532979    3.696522771262   -0.296686579803
 N   -0.459196532979    3.536812771262   -0.208376579803
RB    0.118503467021   -0.912727228738    0.053773420197
 N    0.311304178119   -2.397709877271    0.141262958737
 C   -0.621771054415   -3.403829335404   -0.059230293014
 H   -1.687467580348   -3.194640767027   -0.080912543224
 C    0.000610446592   -4.629928124915   -0.254250584179
 H   -0.386206502594   -5.631549250971   -0.419954876703
 N    1.347290639085   -4.360092604435   -0.136571523031
 H    2.098619020873   -5.034068150857   -0.231505784206
 C    1.496448144521   -3.024024637516    0.107062331917
 H    2.469218357595   -2.557424883237    0.229568879749
