19

 C   -0.168293046846    5.921421741170    0.178164651614
 H    0.218526953154    6.923041741170    0.343874651614
 C    0.454086953154    4.695331741170   -0.016855348386
 H    1.519786953154    4.486141741170    0.004824651614
 N   -1.514973046846    5.651581741170    0.060484651614
 H   -2.266303046846    6.325561741170    0.155414651614
 C   -1.664123046846    4.315521741170   -0.183155348386
 H   -2.636903046846    3.848921741170   -0.305665348386
 N   -0.478983046846    3.689211741170   -0.217355348386
RB    0.098716953154   -0.760328258830    0.044794651614
 N    0.355784567951   -2.740305123542    0.161447369667
 C   -0.577290664584   -3.746424581675   -0.039045882083
 H   -1.642987190517   -3.537236013298   -0.060728132294
 C    0.045090836423   -4.972523371185   -0.234066173249
 H   -0.341726112762   -5.974144497241   -0.399770465773
 N    1.391771028917   -4.702687850705   -0.116387112101
 H    2.143099410704   -5.376663397127   -0.211321373276
 C    1.540928534352   -3.366619883787    0.127246742847
 H    2.513698747426   -2.900020129507    0.249753290679
