19

 C   -0.176207652394    5.982381329133    0.174573144181
 H    0.210612347606    6.984001329133    0.340283144181
 C    0.446172347606    4.756291329133   -0.020446855819
 H    1.511872347606    4.547101329133    0.001233144181
 N   -1.522887652394    5.712541329133    0.056893144181
 H   -2.274217652394    6.386521329133    0.151823144181
 C   -1.672037652394    4.376481329133   -0.186746855819
 H   -2.644817652394    3.909881329133   -0.309256855819
 N   -0.486897652394    3.750171329133   -0.220946855819
RB    0.090802347606   -0.699368670867    0.041203144181
 N    0.373576723883   -2.877343222050    0.169521134039
 C   -0.559498508651   -3.883462680183   -0.030972117711
 H   -1.625195034584   -3.674274111806   -0.052654367922
 C    0.062882992356   -5.109561469693   -0.225992408877
 H   -0.323933956830   -6.111182595750   -0.391696701401
 N    1.409563184849   -4.839725949213   -0.108313347729
 H    2.160891566637   -5.513701495636   -0.203247608904
 C    1.558720690285   -3.503657982295    0.135320507219
 H    2.531490903359   -3.037058228015    0.257827055051
