19

 C   -0.195994166261    6.134780299040    0.165594375598
 H    0.190825833739    7.136400299040    0.331304375598
 C    0.426385833739    4.908690299040   -0.029425624402
 H    1.492085833739    4.699500299040   -0.007745624402
 N   -1.542674166261    5.864940299040    0.047914375598
 H   -2.294004166261    6.538920299040    0.142844375598
 C   -1.691824166261    4.528880299040   -0.195725624402
 H   -2.664604166261    4.062280299040   -0.318235624402
 N   -0.506684166261    3.902570299040   -0.229925624402
RB    0.071015833739   -0.546969700960    0.032224375598
 N    0.418057113715   -3.219938468321    0.189705544969
 C   -0.515018118820   -4.226057926454   -0.010787706781
 H   -1.580714644753   -4.016869358076   -0.032469956992
 C    0.107363382187   -5.452156715964   -0.205807997947
 H   -0.279453566998   -6.453777842020   -0.371512290471
 N    1.454043574681   -5.182321195484   -0.088128936799
 H    2.205371956468   -5.856296741906   -0.183063197973
 C    1.603201080116   -3.846253228565    0.155504918149
 H    2.575971293190   -3.379653474286    0.278011465981
