19

 C   -0.199951469035    6.165260093022    0.163798621881
 H    0.186868530965    7.166880093022    0.329508621881
 C    0.422428530965    4.939170093022   -0.031221378119
 H    1.488128530965    4.729980093022   -0.009541378119
 N   -1.546631469035    5.895420093022    0.046118621881
 H   -2.297961469035    6.569400093022    0.141048621881
 C   -1.695781469035    4.559360093022   -0.197521378119
 H   -2.668561469035    4.092760093022   -0.320031378119
 N   -0.510641469035    3.933050093022   -0.231721378119
RB    0.067058530965   -0.516489906978    0.030428621881
 N    0.426953191681   -3.288457517575    0.193742427155
 C   -0.506122040853   -4.294576975708   -0.006750824595
 H   -1.571818566786   -4.085388407330   -0.028433074806
 C    0.116259460153   -5.520675765218   -0.201771115761
 H   -0.270557489032   -6.522296891274   -0.367475408285
 N    1.462939652647   -5.250840244738   -0.084092054613
 H    2.214268034435   -5.924815791160   -0.179026315787
 C    1.612097158082   -3.914772277819    0.159541800335
 H    2.584867371157   -3.448172523540    0.282048348167
