19

 C   -0.203908771809    6.195739887003    0.162002868164
 H    0.182911228191    7.197359887003    0.327712868164
 C    0.418471228191    4.969649887003   -0.033017131836
 H    1.484171228191    4.760459887003   -0.011337131836
 N   -1.550588771809    5.925899887003    0.044322868164
 H   -2.301918771809    6.599879887003    0.139252868164
 C   -1.699738771809    4.589839887003   -0.199317131836
 H   -2.672518771809    4.123239887003   -0.321827131836
 N   -0.514598771809    3.963529887003   -0.233517131836
RB    0.063101228191   -0.486010112997    0.028632868164
 N    0.435849269647   -3.356976566829    0.197779309341
 C   -0.497225962887   -4.363096024962   -0.002713942409
 H   -1.562922488820   -4.153907456584   -0.024396192620
 C    0.125155538120   -5.589194814472   -0.197734233575
 H   -0.261661411066   -6.590815940528   -0.363438526099
 N    1.471835730613   -5.319359293992   -0.080055172427
 H    2.223164112401   -5.993334840414   -0.174989433601
 C    1.620993236049   -3.983291327074    0.163578682521
 H    2.593763449123   -3.516691572794    0.286085230353
