19

 C   -0.207866074582    6.226219680985    0.160207114448
 H    0.178953925418    7.227839680985    0.325917114448
 C    0.414513925418    5.000129680985   -0.034812885552
 H    1.480213925418    4.790939680985   -0.013132885552
 N   -1.554546074582    5.956379680985    0.042527114448
 H   -2.305876074582    6.630359680985    0.137457114448
 C   -1.703696074582    4.620319680985   -0.201112885552
 H   -2.676476074582    4.153719680985   -0.323622885552
 N   -0.518556074582    3.994009680985   -0.235312885552
RB    0.059143925418   -0.455530319015    0.026837114448
 N    0.444745347613   -3.425495616083    0.201816191527
 C   -0.488329884921   -4.431615074216    0.001322939777
 H   -1.554026410854   -4.222426505839   -0.020359310434
 C    0.134051616086   -5.657713863726   -0.193697351389
 H   -0.252765333099   -6.659334989782   -0.359401643913
 N    1.480731808579   -5.387878343246   -0.076018290240
 H    2.232060190367   -6.061853889668   -0.170952551415
 C    1.629889314015   -4.051810376328    0.167615564707
 H    2.602659527089   -3.585210622048    0.290122112539
