19

 C   -0.215780680129    6.287179268948    0.156615607015
 H    0.171039319871    7.288799268948    0.322325607015
 C    0.406599319871    5.061089268948   -0.038404392985
 H    1.472299319871    4.851899268948   -0.016724392985
 N   -1.562460680129    6.017339268948    0.038935607015
 H   -2.313790680129    6.691319268948    0.133865607015
 C   -1.711610680129    4.681279268948   -0.204704392985
 H   -2.684390680129    4.214679268948   -0.327214392985
 N   -0.526470680129    4.054969268948   -0.238904392985
RB    0.051229319871   -0.394570731052    0.023245607015
 N    0.462537503546   -3.562533714591    0.209889955899
 C   -0.470537728988   -4.568653172724    0.009396704149
 H   -1.536234254921   -4.359464604347   -0.012285546062
 C    0.151843772018   -5.794751962234   -0.185623587017
 H   -0.234973177167   -6.796373088291   -0.351327879541
 N    1.498523964512   -5.524916441754   -0.067944525868
 H    2.249852346300   -6.198891988177   -0.162878787043
 C    1.647681469947   -4.188848474836    0.175689329079
 H    2.620451683022   -3.722248720556    0.298195876911
