19

 C   -0.227652588450    6.378618650892    0.151228345865
 H    0.159167411550    7.380238650892    0.316938345865
 C    0.394727411550    5.152528650892   -0.043791654135
 H    1.460427411550    4.943338650892   -0.022111654135
 N   -1.574332588450    6.108778650892    0.033548345865
 H   -2.325662588450    6.782758650892    0.128478345865
 C   -1.723482588450    4.772718650892   -0.210091654135
 H   -2.696262588450    4.306118650892   -0.332601654135
 N   -0.538342588450    4.146408650892   -0.244291654135
RB    0.039357411550   -0.303131349108    0.017858345865
 N    0.489225737445   -3.768090862353    0.222000602457
 C   -0.443849495089   -4.774210320486    0.021507350707
 H   -1.509546021022   -4.565021752109   -0.000174899504
 C    0.178532005917   -6.000309109997   -0.173512940459
 H   -0.208284943268   -7.001930236053   -0.339217232983
 N    1.525212198411   -5.730473589517   -0.055833879310
 H    2.276540580199   -6.404449135939   -0.150768140485
 C    1.674369703846   -4.394405622598    0.187799975637
 H    2.647139916921   -3.927805868319    0.310306523469
