19

 C   -0.235567193997    6.439578238855    0.147636838432
 H    0.151252806003    7.441198238855    0.313346838432
 C    0.386812806003    5.213488238855   -0.047383161568
 H    1.452512806003    5.004298238855   -0.025703161568
 N   -1.582247193997    6.169738238855    0.029956838432
 H   -2.333577193997    6.843718238855    0.124886838432
 C   -1.731397193997    4.833678238855   -0.213683161568
 H   -2.704177193997    4.367078238855   -0.336193161568
 N   -0.546257193997    4.207368238855   -0.247883161568
RB    0.031442806003   -0.242171761145    0.014266838432
 N    0.507017893377   -3.905128960862    0.230074366829
 C   -0.426057339157   -4.911248418995    0.029581115079
 H   -1.491753865090   -4.702059850617    0.007898864868
 C    0.196324161850   -6.137347208505   -0.165439176087
 H   -0.190492787335   -7.138968334561   -0.331143468611
 N    1.543004354343   -5.867511688025   -0.047760114938
 H    2.294332736131   -6.541487234447   -0.142694376113
 C    1.692161859779   -4.531443721106    0.195873740009
 H    2.664932072853   -4.064843966827    0.318380287841
