19

 C   -0.239524496771    6.470058032837    0.145841084715
 H    0.147295503229    7.471678032837    0.311551084715
 C    0.382855503229    5.243968032837   -0.049178915285
 H    1.448555503229    5.034778032837   -0.027498915285
 N   -1.586204496771    6.200218032837    0.028161084715
 H   -2.337534496771    6.874198032837    0.123091084715
 C   -1.735354496771    4.864158032837   -0.215478915285
 H   -2.708134496771    4.397558032837   -0.337988915285
 N   -0.550214496771    4.237848032837   -0.249678915285
RB    0.027485503229   -0.211691967163    0.012471084715
 N    0.515913971344   -3.973648010116    0.234111249015
 C   -0.417161261190   -4.979767468249    0.033617997265
 H   -1.482857787124   -4.770578899871    0.011935747054
 C    0.205220239816   -6.205866257759   -0.161402293901
 H   -0.181596709369   -7.207487383815   -0.327106586425
 N    1.551900432310   -5.936030737279   -0.043723232752
 H    2.303228814097   -6.610006283701   -0.138657493927
 C    1.701057937745   -4.599962770360    0.199910622195
 H    2.673828150819   -4.133363016081    0.322417170027
