19

 C   -0.243481799544    6.500537826818    0.144045330998
 H    0.143338200456    7.502157826818    0.309755330998
 C    0.378898200456    5.274447826818   -0.050974669002
 H    1.444598200456    5.065257826818   -0.029294669002
 N   -1.590161799544    6.230697826818    0.026365330998
 H   -2.341491799544    6.904677826818    0.121295330998
 C   -1.739311799544    4.894637826818   -0.217274669002
 H   -2.712091799544    4.428037826818   -0.339784669002
 N   -0.554171799544    4.268327826818   -0.251474669002
RB    0.023528200456   -0.181212173182    0.010675330998
 N    0.524810049310   -4.042167059370    0.238148131201
 C   -0.408265183224   -5.048286517503    0.037654879451
 H   -1.473961709157   -4.839097949125    0.015972629240
 C    0.214116317782   -6.274385307013   -0.157365411715
 H   -0.172700631403   -7.276006433069   -0.323069704239
 N    1.560796510276   -6.004549786533   -0.039686350566
 H    2.312124892064   -6.678525332955   -0.134620611741
 C    1.709954015711   -4.668481819615    0.203947504381
 H    2.682724228786   -4.201882065335    0.326454052213
