19

 C   -0.255353707865    6.591977208763    0.138658069848
 H    0.131466292135    7.593597208763    0.304368069848
 C    0.367026292135    5.365887208763   -0.056361930152
 H    1.432726292135    5.156697208763   -0.034681930152
 N   -1.602033707865    6.322137208763    0.020978069848
 H   -2.353363707865    6.996117208763    0.115908069848
 C   -1.751183707865    4.986077208763   -0.222661930152
 H   -2.723963707865    4.519477208763   -0.345171930152
 N   -0.566043707865    4.359767208763   -0.256861930152
RB    0.011656292135   -0.089772791237    0.005288069848
 N    0.551498283209   -4.247724207132    0.250258777759
 C   -0.381576949325   -5.253843665265    0.049765526009
 H   -1.447273475258   -5.044655096888    0.028083275798
 C    0.240804551681   -6.479942454775   -0.145254765157
 H   -0.146012397504   -7.481563580832   -0.310959057681
 N    1.587484744175   -6.210106934295   -0.027575704008
 H    2.338813125963   -6.884082480718   -0.122509965183
 C    1.736642249610   -4.874038967377    0.216058150939
 H    2.709412462685   -4.407439213097    0.338564698771
