19

 C   -0.263268313412    6.652936796725    0.135066562415
 H    0.123551686588    7.654556796725    0.300776562415
 C    0.359111686588    5.426846796725   -0.059953437585
 H    1.424811686588    5.217656796725   -0.038273437585
 N   -1.609948313412    6.383096796725    0.017386562415
 H   -2.361278313412    7.057076796725    0.112316562415
 C   -1.759098313412    5.047036796725   -0.226253437585
 H   -2.731878313412    4.580436796725   -0.348763437585
 N   -0.573958313412    4.420726796725   -0.260453437585
RB    0.003741686588   -0.028813203275    0.001696562415
 N    0.569290439141   -4.384762305640    0.258332542131
 C   -0.363784793393   -5.390881763773    0.057839290381
 H   -1.429481319326   -5.181693195396    0.036157040170
 C    0.258596707614   -6.616980553284   -0.137181000785
 H   -0.128220241571   -7.618601679340   -0.302885293309
 N    1.605276900107   -6.347145032803   -0.019501939636
 H    2.356605281895   -7.021120579226   -0.114436200811
 C    1.754434405543   -5.011077065885    0.224131915311
 H    2.727204618617   -4.544477311606    0.346638463143
