19

 C   -0.267225616186    6.683416590707    0.133270808699
 H    0.119594383814    7.685036590707    0.298980808699
 C    0.355154383814    5.457326590707   -0.061749191301
 H    1.420854383814    5.248136590707   -0.040069191301
 N   -1.613905616186    6.413576590707    0.015590808699
 H   -2.365235616186    7.087556590707    0.110520808699
 C   -1.763055616186    5.077516590707   -0.228049191301
 H   -2.735835616186    4.610916590707   -0.350559191301
 N   -0.577915616186    4.451206590707   -0.262249191301
RB   -0.000215616186    0.001666590707   -0.000099191301
 N    0.578186517108   -4.453281354894    0.262369424317
 C   -0.354888715426   -5.459400813027    0.061876172567
 H   -1.420585241360   -5.250212244650    0.040193922356
 C    0.267492785580   -6.685499602538   -0.133144118599
 H   -0.119324163605   -7.687120728594   -0.298848411123
 N    1.614172978074   -6.415664082058   -0.015465057450
 H    2.365501359861   -7.089639628480   -0.110399318625
 C    1.763330483509   -5.079596115139    0.228168797497
 H    2.736100696583   -4.612996360860    0.350675345329
