19

 C   -0.275140221733    6.744376178670    0.129679301265
 H    0.111679778267    7.745996178670    0.295389301265
 C    0.347239778267    5.518286178670   -0.065340698735
 H    1.412939778267    5.309096178670   -0.043660698735
 N   -1.621820221733    6.474536178670    0.011999301265
 H   -2.373150221733    7.148516178670    0.106929301265
 C   -1.770970221733    5.138476178670   -0.231640698735
 H   -2.743750221733    4.671876178670   -0.354150698735
 N   -0.585830221733    4.512166178670   -0.265840698735
RB   -0.008130221733    0.062626178670   -0.003690698735
 N    0.595978673040   -4.590319453403    0.270443188689
 C   -0.337096559494   -5.596438911536    0.069949936939
 H   -1.402793085427   -5.387250343158    0.048267686728
 C    0.285284941513   -6.822537701046   -0.125070354227
 H   -0.101532007672   -7.824158827102   -0.290774646751
 N    1.631965134006   -6.552702180566   -0.007391293078
 H    2.383293515794   -7.226677726988   -0.102325554253
 C    1.781122639442   -5.216634213647    0.236242561869
 H    2.753892852516   -4.750034459368    0.358749109701
