19

 C   -0.287012130053    6.835815560614    0.124292040115
 H    0.099807869947    7.837435560614    0.290002040115
 C    0.335367869947    5.609725560614   -0.070727959885
 H    1.401067869947    5.400535560614   -0.049047959885
 N   -1.633692130053    6.565975560614    0.006612040115
 H   -2.385022130053    7.239955560614    0.101542040115
 C   -1.782842130053    5.229915560614   -0.237027959885
 H   -2.755622130053    4.763315560614   -0.359537959885
 N   -0.597702130053    4.603605560614   -0.271227959885
RB   -0.020002130053    0.154065560614   -0.009077959885
 N    0.622666906939   -4.795876601165    0.282553835247
 C   -0.310408325595   -5.801996059298    0.082060583497
 H   -1.376104851528   -5.592807490921    0.060378333286
 C    0.311973175412   -7.028094848808   -0.112959707669
 H   -0.074843773774   -8.029715974864   -0.278664000193
 N    1.658653367905   -6.758259328328    0.004719353480
 H    2.409981749693   -7.432234874750   -0.090214907695
 C    1.807810873341   -5.422191361410    0.248353208427
 H    2.780581086415   -4.955591607130    0.370859756259
