19

 C   -0.298884038374    6.927254942559    0.118904778966
 H    0.087935961626    7.928874942559    0.284614778966
 C    0.323495961626    5.701164942559   -0.076115221034
 H    1.389195961626    5.491974942559   -0.054435221034
 N   -1.645564038374    6.657414942559    0.001224778966
 H   -2.396894038374    7.331394942559    0.096154778966
 C   -1.794714038374    5.321354942559   -0.242415221034
 H   -2.767494038374    4.854754942559   -0.364925221034
 N   -0.609574038374    4.695044942559   -0.276615221034
RB   -0.031874038374    0.245504942559   -0.014465221034
 N    0.649355140838   -5.001433748927    0.294664481805
 C   -0.283720091696   -6.007553207060    0.094171230055
 H   -1.349416617629   -5.798364638683    0.072488979844
 C    0.338661409310   -7.233651996570   -0.100849061111
 H   -0.048155539875   -8.235273122627   -0.266553353635
 N    1.685341601804   -6.963816476090    0.016830000038
 H    2.436669983592   -7.637792022513   -0.078104261137
 C    1.834499107239   -5.627748509172    0.260463854985
 H    2.807269320314   -5.161148754892    0.382970402818
