19

 C   -0.302841341148    6.957734736540    0.117109025249
 H    0.083978658852    7.959354736540    0.282819025249
 C    0.319538658852    5.731644736540   -0.077910974751
 H    1.385238658852    5.522454736540   -0.056230974751
 N   -1.649521341148    6.687894736540   -0.000570974751
 H   -2.400851341148    7.361874736540    0.094359025249
 C   -1.798671341148    5.351834736540   -0.244210974751
 H   -2.771451341148    4.885234736540   -0.366720974751
 N   -0.613531341148    4.725524736540   -0.278410974751
RB   -0.035831341148    0.275984736540   -0.016260974751
 N    0.658251218804   -5.069952798181    0.298701363991
 C   -0.274824013730   -6.076072256314    0.098208112241
 H   -1.340520539663   -5.866883687937    0.076525862030
 C    0.347557487277   -7.302171045824   -0.096812178925
 H   -0.039259461908   -8.303792171881   -0.262516471449
 N    1.694237679770   -7.032335525344    0.020866882224
 H    2.445566061558   -7.706311071767   -0.074067378951
 C    1.843395185206   -5.696267558426    0.264500737171
 H    2.816165398280   -5.229667804147    0.387007285004
