19

 C   -0.306798643921    6.988214530522    0.115313271532
 H    0.080021356079    7.989834530522    0.281023271532
 C    0.315581356079    5.762124530522   -0.079706728468
 H    1.381281356079    5.552934530522   -0.058026728468
 N   -1.653478643921    6.718374530522   -0.002366728468
 H   -2.404808643921    7.392354530522    0.092563271532
 C   -1.802628643921    5.382314530522   -0.246006728468
 H   -2.775408643921    4.915714530522   -0.368516728468
 N   -0.617488643921    4.756004530522   -0.280206728468
RB   -0.039788643921    0.306464530522   -0.018056728468
 N    0.667147296771   -5.138471847435    0.302738246177
 C   -0.265927935764   -6.144591305568    0.102244994427
 H   -1.331624461697   -5.935402737191    0.080562744216
 C    0.356453565243   -7.370690095079   -0.092775296739
 H   -0.030363383942   -8.372311221135   -0.258479589263
 N    1.703133757736   -7.100854574599    0.024903764410
 H    2.454462139524   -7.774830121021   -0.070030496765
 C    1.852291263172   -5.764786607680    0.268537619357
 H    2.825061476246   -5.298186853401    0.391044167190
