19

 C   -0.314713249468    7.049174118485    0.111721764099
 H    0.072106750532    8.050794118485    0.277431764099
 C    0.307666750532    5.823084118485   -0.083298235901
 H    1.373366750532    5.613894118485   -0.061618235901
 N   -1.661393249468    6.779334118485   -0.005958235901
 H   -2.412723249468    7.453314118485    0.088971764099
 C   -1.810543249468    5.443274118485   -0.249598235901
 H   -2.783323249468    4.976674118485   -0.372108235901
 N   -0.625403249468    4.816964118485   -0.283798235901
RB   -0.047703249468    0.367424118485   -0.021648235901
 N    0.684939452703   -5.275509945944    0.310812010549
 C   -0.248135779831   -6.281629404077    0.110318758799
 H   -1.313832305764   -6.072440835699    0.088636508588
 C    0.374245721175   -7.507728193587   -0.084701532367
 H   -0.012571228010   -8.509349319643   -0.250405824891
 N    1.720925913669   -7.237892673107    0.032977528782
 H    2.472254295457   -7.911868219529   -0.061956732393
 C    1.870083419105   -5.901824706188    0.276611383729
 H    2.842853632179   -5.435224951909    0.399117931562
