19

 C   -0.338457066110    7.232052882374    0.100947241799
 H    0.048362933890    8.233672882374    0.266657241799
 C    0.283922933890    6.005962882374   -0.094072758201
 H    1.349622933890    5.796772882374   -0.072392758201
 N   -1.685137066110    6.962212882374   -0.016732758201
 H   -2.436467066110    7.636192882374    0.078197241799
 C   -1.834287066110    5.626152882374   -0.260372758201
 H   -2.807067066110    5.159552882374   -0.382882758201
 N   -0.649147066110    4.999842882374   -0.294572758201
RB   -0.071447066110    0.550302882374   -0.032422758201
 N    0.738315920501   -5.686624241468    0.335033303665
 C   -0.194759312033   -6.692743699601    0.134540051915
 H   -1.260455837967   -6.483555131224    0.112857801704
 C    0.427622188973   -7.918842489111   -0.060480239251
 H    0.040805239788   -8.920463615168   -0.226184531775
 N    1.774302381467   -7.649006968631    0.057198821898
 H    2.525630763255   -8.322982515054   -0.037735439277
 C    1.923459886902   -6.312939001713    0.300832676846
 H    2.896230099976   -5.846339247433    0.423339224678
