19

 C   -0.346371671657    7.293012470337    0.097355734366
 H    0.040448328343    8.294632470337    0.263065734366
 C    0.276008328343    6.066922470337   -0.097664265634
 H    1.341708328343    5.857732470337   -0.075984265634
 N   -1.693051671657    7.023172470337   -0.020324265634
 H   -2.444381671657    7.697152470337    0.074605734366
 C   -1.842201671657    5.687112470337   -0.263964265634
 H   -2.814981671657    5.220512470337   -0.386474265634
 N   -0.657061671657    5.060802470337   -0.298164265634
RB   -0.079361671657    0.611262470337   -0.036014265634
 N    0.756108076433   -5.823662339976    0.343107068037
 C   -0.176967156101   -6.829781798109    0.142613816287
 H   -1.242663682034   -6.620593229732    0.120931566076
 C    0.445414344906   -8.055880587620   -0.052406474879
 H    0.058597395721   -9.057501713676   -0.218110767403
 N    1.792094537399   -7.786045067140    0.065272586270
 H    2.543422919187   -8.460020613562   -0.029661674905
 C    1.941252042835   -6.449977100221    0.308906441218
 H    2.914022255909   -5.983377345942    0.431412989050
