19

 C   -0.350328974431    7.323492264318    0.095559980650
 H    0.036491025569    8.325112264318    0.261269980650
 C    0.272051025569    6.097402264318   -0.099460019350
 H    1.337751025569    5.888212264318   -0.077780019350
 N   -1.697008974431    7.053652264318   -0.022120019350
 H   -2.448338974431    7.727632264318    0.072809980650
 C   -1.846158974431    5.717592264318   -0.265760019350
 H   -2.818938974431    5.250992264318   -0.388270019350
 N   -0.661018974431    5.091282264318   -0.299960019350
RB   -0.083318974431    0.641742264318   -0.037810019350
 N    0.765004154400   -5.892181389230    0.347143950223
 C   -0.168071078135   -6.898300847363    0.146650698473
 H   -1.233767604068   -6.689112278986    0.124968448262
 C    0.454310422872   -8.124399636874   -0.048369592693
 H    0.067493473687   -9.126020762930   -0.214073885217
 N    1.800990615366   -7.854564116394    0.069309468456
 H    2.552318997153   -8.528539662816   -0.025624792719
 C    1.950148120801   -6.518496149475    0.312943323404
 H    2.922918333875   -6.051896395196    0.435449871236
