19

 C   -0.354286277204    7.353972058300    0.093764226933
 H    0.032533722796    8.355592058300    0.259474226933
 C    0.268093722796    6.127882058300   -0.101255773067
 H    1.333793722796    5.918692058300   -0.079575773067
 N   -1.700966277204    7.084132058300   -0.023915773067
 H   -2.452296277204    7.758112058300    0.071014226933
 C   -1.850116277204    5.748072058300   -0.267555773067
 H   -2.822896277204    5.281472058300   -0.390065773067
 N   -0.664976277204    5.121762058300   -0.301755773067
RB   -0.087276277204    0.672222058300   -0.039605773067
 N    0.773900232366   -5.960700438484    0.351180832409
 C   -0.159175000168   -6.966819896618    0.150687580659
 H   -1.224871526101   -6.757631328240    0.129005330448
 C    0.463206500838   -8.192918686128   -0.044332710507
 H    0.076389551653   -9.194539812184   -0.210037003031
 N    1.809886693332   -7.923083165648    0.073346350642
 H    2.561215075120   -8.597058712070   -0.021587910533
 C    1.959044198767   -6.587015198729    0.316980205590
 H    2.931814411842   -6.120415444450    0.439486753422
