19

 C   -0.366158185525    7.445411440244    0.088376965783
 H    0.020661814475    8.447031440244    0.254086965783
 C    0.256221814475    6.219321440244   -0.106643034217
 H    1.321921814475    6.010131440244   -0.084963034217
 N   -1.712838185525    7.175571440244   -0.029303034217
 H   -2.464168185525    7.849551440244    0.065626965783
 C   -1.861988185525    5.839511440244   -0.272943034217
 H   -2.834768185525    5.372911440244   -0.395453034217
 N   -0.676848185525    5.213201440244   -0.307143034217
RB   -0.099148185525    0.763661440244   -0.044993034217
 N    0.800588466265   -6.166257586247    0.363291478968
 C   -0.132486766269   -7.172377044380    0.162798227217
 H   -1.198183292203   -6.963188476003    0.141115977006
 C    0.489894734737   -8.398475833890   -0.032222063949
 H    0.103077785552   -9.400096959946   -0.197926356473
 N    1.836574927231   -8.128640313410    0.085456997200
 H    2.587903309019   -8.802615859832   -0.009477263975
 C    1.985732432666   -6.792572346492    0.329090852148
 H    2.958502645740   -6.325972592212    0.451597399980
