19

 C   -0.405731213261    7.750209380059    0.070419428617
 H   -0.018911213261    8.751829380059    0.236129428617
 C    0.216648786739    6.524119380059   -0.124600571383
 H    1.282348786739    6.314929380059   -0.102920571383
 N   -1.752411213261    7.480369380059   -0.047260571383
 H   -2.503741213261    8.154349380059    0.047669428617
 C   -1.901561213261    6.144309380059   -0.290900571383
 H   -2.874341213261    5.677709380059   -0.413410571383
 N   -0.716421213261    5.517999380059   -0.325100571383
RB   -0.138721213261    1.068459380059   -0.062950571383
 N    0.889549245928   -6.851448078788    0.403660300828
 C   -0.043525986607   -7.857567536921    0.203167049077
 H   -1.109222512540   -7.648378968543    0.181484798867
 C    0.578855514400   -9.083666326431    0.008146757912
 H    0.192038565215  -10.085287452487   -0.157557534612
 N    1.925535706894   -8.813830805951    0.125825819060
 H    2.676864088681   -9.487806352373    0.030891557885
 C    2.074693212329   -7.477762839033    0.369459674008
 H    3.047463425403   -7.011163084753    0.491966221840
