19

 C   -0.417603121581    7.841648762003    0.065032167467
 H   -0.030783121581    8.843268762003    0.230742167467
 C    0.204776878419    6.615558762003   -0.129987832533
 H    1.270476878419    6.406368762003   -0.108307832533
 N   -1.764283121581    7.571808762003   -0.052647832533
 H   -2.515613121581    8.245788762003    0.042282167467
 C   -1.913433121581    6.235748762003   -0.296287832533
 H   -2.886213121581    5.769148762003   -0.418797832533
 N   -0.728293121581    5.609438762003   -0.330487832533
RB   -0.150593121581    1.159898762003   -0.068337832533
 N    0.916237479826   -7.057005226550    0.415770947386
 C   -0.016837752708   -8.063124684683    0.215277695636
 H   -1.082534278641   -7.853936116306    0.193595445425
 C    0.605543748299   -9.289223474193    0.020257404470
 H    0.218726799114  -10.290844600250   -0.145446888054
 N    1.952223940792   -9.019387953713    0.137936465618
 H    2.703552322580   -9.693363500136    0.043002204443
 C    2.101381446228   -7.683319986795    0.381570320566
 H    3.074151659302   -7.216720232515    0.504076868398
