19

 C   -0.449261543770    8.085487113855    0.050666137734
 H   -0.062441543770    9.087107113855    0.216376137734
 C    0.173118456230    6.859397113855   -0.144353862266
 H    1.238818456230    6.650207113855   -0.122673862266
 N   -1.795941543770    7.815647113855   -0.067013862266
 H   -2.547271543770    8.489627113855    0.027916137734
 C   -1.945091543770    6.479587113855   -0.310653862266
 H   -2.917871543770    6.012987113855   -0.433163862266
 N   -0.759951543770    5.853277113855   -0.344853862266
RB   -0.182251543770    1.403737113855   -0.082703862266
 N    0.987406103557   -7.605157620583    0.448066004874
 C    0.054330871023   -8.611277078716    0.247572753124
 H   -1.011365654911   -8.402088510339    0.225890502913
 C    0.676712372029   -9.837375868226    0.052552461958
 H    0.289895422844  -10.838996994282   -0.113151830566
 N    2.023392564523   -9.567540347746    0.170231523106
 H    2.774720946310  -10.241515894168    0.075297261931
 C    2.172550069958   -8.231472380828    0.413865378054
 H    3.145320283032   -7.764872626548    0.536371925886
