19

 C   -0.453218846543    8.115966907837    0.048870384017
 H   -0.066398846543    9.117586907837    0.214580384017
 C    0.169161153457    6.889876907837   -0.146149615983
 H    1.234861153457    6.680686907837   -0.124469615983
 N   -1.799898846543    7.846126907837   -0.068809615983
 H   -2.551228846543    8.520106907837    0.026120384017
 C   -1.949048846543    6.510066907837   -0.312449615983
 H   -2.921828846543    6.043466907837   -0.434959615983
 N   -0.763908846543    5.883756907837   -0.346649615983
RB   -0.186208846543    1.434216907837   -0.084499615983
 N    0.996302181523   -7.673676669837    0.452102887060
 C    0.063226948989   -8.679796127970    0.251609635310
 H   -1.002469576944   -8.470607559593    0.229927385099
 C    0.685608449995   -9.905894917480    0.056589344144
 H    0.298791500810  -10.907516043537   -0.109114948380
 N    2.032288642489   -9.636059397000    0.174268405292
 H    2.783617024277  -10.310034943423    0.079334144118
 C    2.181446147924   -8.299991430082    0.417902260240
 H    3.154216360999   -7.833391675802    0.540408808072
