19

 C   -0.465090754864    8.207406289781    0.043483122868
 H   -0.078270754864    9.209026289781    0.209193122868
 C    0.157289245136    6.981316289781   -0.151536877132
 H    1.222989245136    6.772126289781   -0.129856877132
 N   -1.811770754864    7.937566289781   -0.074196877132
 H   -2.563100754864    8.611546289781    0.020733122868
 C   -1.960920754864    6.601506289781   -0.317836877132
 H   -2.933700754864    6.134906289781   -0.440346877132
 N   -0.775780754864    5.975196289781   -0.352036877132
RB   -0.198080754864    1.525656289781   -0.089886877132
 N    1.022990415422   -7.879233817599    0.464213533618
 C    0.089915182888   -8.885353275732    0.263720281868
 H   -0.975781343045   -8.676164707355    0.242038031657
 C    0.712296683894  -10.111452065243    0.068699990702
 H    0.325479734709  -11.113073191299   -0.097004301822
 N    2.058976876388   -9.841616544763    0.186379051850
 H    2.810305258176  -10.515592091185    0.091444790676
 C    2.208134381823   -8.505548577844    0.430012906798
 H    3.180904594897   -8.038948823565    0.552519454630
