19

 C   -0.473005360411    8.268365877744    0.039891615434
 H   -0.086185360411    9.269985877744    0.205601615434
 C    0.149374639589    7.042275877744   -0.155128384566
 H    1.215074639589    6.833085877744   -0.133448384566
 N   -1.819685360411    7.998525877744   -0.077788384566
 H   -2.571015360411    8.672505877744    0.017141615434
 C   -1.968835360411    6.662465877744   -0.321428384566
 H   -2.941615360411    6.195865877744   -0.443938384566
 N   -0.783695360411    6.036155877744   -0.355628384566
RB   -0.205995360411    1.586615877744   -0.093478384566
 N    1.040782571354   -8.016271916107    0.472287297990
 C    0.107707338820   -9.022391374241    0.271794046240
 H   -0.957989187113   -8.813202805863    0.250111796029
 C    0.730088839827  -10.248490163751    0.076773755074
 H    0.343271890642  -11.250111289807   -0.088930537450
 N    2.076769032320   -9.978654643271    0.194452816223
 H    2.828097414108  -10.652630189693    0.099518555048
 C    2.225926537756   -8.642586676352    0.438086671170
 H    3.198696750830   -8.175986922073    0.560593219002
