17

 N   -1.740300668223   -2.043128647666   -0.002966296204
 C   -0.530112601379   -1.387922443990    0.000995327764
 N    0.703299812924   -1.986600138452    0.013033612669
 C    1.673723012980   -1.096423996841    0.001161155696
 N    1.470646175567    0.265214136673   -0.005674004646
 H    2.274473300818    0.885174676428   -0.087662027068
 N    2.999177767217   -1.515098718521   -0.077186147539
 H    3.653713972549   -0.983295494121    0.490454629191
 H    3.077982854608   -2.515798862456    0.084397190450
 C    0.211372433250    0.951247840204    0.007279782031
 O    0.183792064145    2.179420924981    0.003191653603
 C   -0.861412692726   -0.022445549070    0.013480979971
 N   -2.232485994495    0.163885496243    0.013405795255
 C   -2.726009489006   -1.074717517802    0.003075695590
 H   -3.783507402274   -1.328864139634    0.000129051164
 H   -1.865397664754   -3.049711732898   -0.011625847235
NA    0.159096366403    3.279137580726   -0.000468891461
