17

 N   -1.740004105745   -2.056334781806   -0.002922337927
 C   -0.529816038901   -1.401128578130    0.001039286041
 N    0.703596375402   -1.999806272592    0.013077570946
 C    1.674019575458   -1.109630130981    0.001205113973
 N    1.470942738045    0.252008002533   -0.005630046369
 H    2.274769863296    0.871968542288   -0.087618068791
 N    2.999474329695   -1.528304852661   -0.077142189262
 H    3.654010535027   -0.996501628261    0.490498587468
 H    3.078279417086   -2.529004996596    0.084441148727
 C    0.211668995728    0.938041706064    0.007323740308
 O    0.184088626623    2.166214790841    0.003235611880
 C   -0.861116130248   -0.035651683210    0.013524938248
 N   -2.232189432017    0.150679362103    0.013449753532
 C   -2.725712926528   -1.087923651942    0.003119653867
 H   -3.783210839796   -1.342070273774    0.000173009441
 H   -1.865101102276   -3.062917867038   -0.011581888958
NA    0.157147865450    3.365905688017   -0.000757710008
