17

 N   -1.739707543266   -2.069540915946   -0.002878379650
 C   -0.529519476422   -1.414334712270    0.001083244318
 N    0.703892937881   -2.013012406732    0.013121529223
 C    1.674316137937   -1.122836265121    0.001249072250
 N    1.471239300524    0.238801868393   -0.005586088092
 H    2.275066425775    0.858762408148   -0.087574110514
 N    2.999770892174   -1.541510986801   -0.077098230985
 H    3.654307097506   -1.009707762401    0.490542545745
 H    3.078575979565   -2.542211130736    0.084485107004
 C    0.211965558207    0.924835571924    0.007367698585
 O    0.184385189102    2.153008656701    0.003279570157
 C   -0.860819567769   -0.048857817350    0.013568896525
 N   -2.231892869538    0.137473227963    0.013493711809
 C   -2.725416364049   -1.101129786082    0.003163612144
 H   -3.782914277317   -1.355276407914    0.000216967718
 H   -1.864804539797   -3.076124001178   -0.011537930681
NA    0.155199364498    3.452673795308   -0.001046528555
