17

 N   -1.739114418309   -2.095953184227   -0.002790463097
 C   -0.528926351465   -1.440746980551    0.001171160871
 N    0.704486062838   -2.039424675013    0.013209445776
 C    1.674909262894   -1.149248533402    0.001336988803
 N    1.471832425481    0.212389600112   -0.005498171539
 H    2.275659550732    0.832350139867   -0.087486193961
 N    3.000364017131   -1.567923255082   -0.077010314432
 H    3.654900222463   -1.036120030682    0.490630462298
 H    3.079169104522   -2.568623399017    0.084573023557
 C    0.212558683164    0.898423303643    0.007455615138
 O    0.184978314059    2.126596388420    0.003367486710
 C   -0.860226442812   -0.075270085631    0.013656813078
 N   -2.231299744581    0.111060959682    0.013581628362
 C   -2.724823239092   -1.127542054363    0.003251528697
 H   -3.782321152360   -1.381688676195    0.000304884271
 H   -1.864211414840   -3.102536269459   -0.011450014128
NA    0.151302362592    3.626210009890   -0.001624165650
