17

 N   -1.738817855831   -2.109159318367   -0.002746504820
 C   -0.528629788987   -1.453953114691    0.001215119148
 N    0.704782625316   -2.052630809153    0.013253404053
 C    1.675205825372   -1.162454667542    0.001380947080
 N    1.472128987959    0.199183465972   -0.005454213262
 H    2.275956113210    0.819144005727   -0.087442235684
 N    3.000660579609   -1.581129389222   -0.076966356155
 H    3.655196784941   -1.049326164822    0.490674420575
 H    3.079465667000   -2.581829533157    0.084616981834
 C    0.212855245642    0.885217169503    0.007499573415
 O    0.185274876537    2.113390254280    0.003411444987
 C   -0.859929880334   -0.088476219771    0.013700771355
 N   -2.231003182103    0.097854825542    0.013625586639
 C   -2.724526676614   -1.140748188503    0.003295486974
 H   -3.782024589882   -1.394894810335    0.000348842548
 H   -1.863914852362   -3.115742403599   -0.011406055851
NA    0.149353861640    3.712978117182   -0.001912984197
