17

 N   -1.738224730874   -2.135571586648   -0.002658588266
 C   -0.528036664030   -1.480365382972    0.001303035702
 N    0.705375750273   -2.079043077434    0.013341320607
 C    1.675798950329   -1.188866935823    0.001468863634
 N    1.472722112916    0.172771197691   -0.005366296708
 H    2.276549238167    0.792731737446   -0.087354319130
 N    3.001253704566   -1.607541657503   -0.076878439601
 H    3.655789909898   -1.075738433103    0.490762337129
 H    3.080058791957   -2.608241801438    0.084704898388
 C    0.213448370599    0.858804901222    0.007587489969
 O    0.185868001494    2.086977985999    0.003499361541
 C   -0.859336755377   -0.114888488052    0.013788687909
 N   -2.230410057146    0.071442557261    0.013713503193
 C   -2.723933551657   -1.167160456784    0.003383403528
 H   -3.781431464925   -1.421307078616    0.000436759102
 H   -1.863321727405   -3.142154671880   -0.011318139297
NA    0.145456859735    3.886514331764   -0.002490621291
