17

 N   -1.737631605917   -2.161983854928   -0.002570671713
 C   -0.527443539073   -1.506777651252    0.001390952255
 N    0.705968875230   -2.105455345714    0.013429237160
 C    1.676392075286   -1.215279204103    0.001556780187
 N    1.473315237873    0.146358929411   -0.005278380155
 H    2.277142363124    0.766319469166   -0.087266402577
 N    3.001846829523   -1.633953925783   -0.076790523048
 H    3.656383034855   -1.102150701383    0.490850253682
 H    3.080651916914   -2.634654069718    0.084792814941
 C    0.214041495556    0.832392632942    0.007675406522
 O    0.186461126451    2.060565717719    0.003587278094
 C   -0.858743630420   -0.141300756332    0.013876604462
 N   -2.229816932189    0.045030288981    0.013801419746
 C   -2.723340426700   -1.193572725064    0.003471320081
 H   -3.780838339968   -1.447719346896    0.000524675655
 H   -1.862728602448   -3.168566940160   -0.011230222744
NA    0.141559857830    4.060050546346   -0.003068258386
