17

 N   -1.737335043438   -2.175189989068   -0.002526713436
 C   -0.527146976594   -1.519983785392    0.001434910532
 N    0.706265437709   -2.118661479854    0.013473195437
 C    1.676688637765   -1.228485338243    0.001600738464
 N    1.473611800352    0.133152795271   -0.005234421878
 H    2.277438925603    0.753113335026   -0.087222444300
 N    3.002143392002   -1.647160059923   -0.076746564771
 H    3.656679597334   -1.115356835523    0.490894211959
 H    3.080948479393   -2.647860203858    0.084836773218
 C    0.214338058035    0.819186498802    0.007719364799
 O    0.186757688930    2.047359583579    0.003631236371
 C   -0.858447067941   -0.154506890472    0.013920562739
 N   -2.229520369710    0.031824154841    0.013845378023
 C   -2.723043864221   -1.206778859204    0.003515278358
 H   -3.780541777489   -1.460925481036    0.000568633932
 H   -1.862432039969   -3.181773074300   -0.011186264467
NA    0.139611356877    4.146818653637   -0.003357076933
