17

 N   -1.735259106089   -2.267632928050   -0.002219005499
 C   -0.525071039245   -1.612426724374    0.001742618469
 N    0.708341375058   -2.211104418836    0.013780903374
 C    1.678764575114   -1.320928277225    0.001908446401
 N    1.475687737701    0.040709856289   -0.004926713941
 H    2.279514862952    0.660670396044   -0.086914736363
 N    3.004219329351   -1.739602998905   -0.076438856834
 H    3.658755534683   -1.207799774505    0.491201919896
 H    3.083024416742   -2.740303142840    0.085144481155
 C    0.216413995384    0.726743559820    0.008027072736
 O    0.188833626279    1.954916644597    0.003938944308
 C   -0.856371130592   -0.246949829454    0.014228270676
 N   -2.227444432361   -0.060618784141    0.014153085960
 C   -2.720967926872   -1.299221798186    0.003822986295
 H   -3.778465840140   -1.553368420018    0.000876341869
 H   -1.860356102620   -3.274216013282   -0.010878556530
NA    0.125971850209    4.754195404675   -0.005378806763
