17

 N   -1.733776293696   -2.333663598751   -0.001999214115
 C   -0.523588226852   -1.678457395075    0.001962409853
 N    0.709824187451   -2.277135089537    0.014000694758
 C    1.680247387507   -1.386958947926    0.002128237785
 N    1.477170550094   -0.025320814412   -0.004706922557
 H    2.280997675345    0.594639725343   -0.086694944979
 N    3.005702141744   -1.805633669606   -0.076219065450
 H    3.660238347076   -1.273830445206    0.491421711280
 H    3.084507229135   -2.806333813541    0.085364272539
 C    0.217896807777    0.660712889119    0.008246864120
 O    0.190316438672    1.888885973896    0.004158735692
 C   -0.854888318199   -0.312980500155    0.014448062060
 N   -2.225961619968   -0.126649454842    0.014372877344
 C   -2.719485114479   -1.365252468887    0.004042777679
 H   -3.776983027747   -1.619399090719    0.001096133253
 H   -1.858873290227   -3.340246683983   -0.010658765146
NA    0.116229345446    5.188035941131   -0.006822899499
