17

 N   -1.733183168739   -2.360075867031   -0.001911297561
 C   -0.522995101895   -1.704869663355    0.002050326407
 N    0.710417312408   -2.303547357817    0.014088611312
 C    1.680840512464   -1.413371216206    0.002216154339
 N    1.477763675051   -0.051733082692   -0.004619006003
 H    2.281590800302    0.568227457063   -0.086607028425
 N    3.006295266701   -1.832045937886   -0.076131148896
 H    3.660831472033   -1.300242713486    0.491509627834
 H    3.085100354092   -2.832746081821    0.085452189093
 C    0.218489932734    0.634300620839    0.008334780674
 O    0.190909563629    1.862473705616    0.004246652246
 C   -0.854295193242   -0.339392768435    0.014535978614
 N   -2.225368495011   -0.153061723122    0.014460793898
 C   -2.718891989522   -1.391664737167    0.004130694233
 H   -3.776389902790   -1.645811358999    0.001184049807
 H   -1.858280165270   -3.366658952263   -0.010570848592
NA    0.112332343541    5.361572155713   -0.007400536594
