17

 N   -1.732886606261   -2.373282001172   -0.001867339284
 C   -0.522698539417   -1.718075797496    0.002094284684
 N    0.710713874886   -2.316753491958    0.014132569589
 C    1.681137074942   -1.426577350347    0.002260112616
 N    1.478060237529   -0.064939216833   -0.004575047726
 H    2.281887362780    0.555021322922   -0.086563070148
 N    3.006591829179   -1.845252072027   -0.076087190619
 H    3.661128034511   -1.313448847627    0.491553586111
 H    3.085396916570   -2.845952215962    0.085496147370
 C    0.218786495212    0.621094486698    0.008378738951
 O    0.191206126107    1.849267571475    0.004290610523
 C   -0.853998630764   -0.352598902576    0.014579936891
 N   -2.225071932533   -0.166267857263    0.014504752175
 C   -2.718595427044   -1.404870871308    0.004174652510
 H   -3.776093340312   -1.659017493140    0.001228008084
 H   -1.857983602792   -3.379865086404   -0.010526890315
NA    0.110383842588    5.448340263004   -0.007689355141
