17

 N   -1.732590043783   -2.386488135312   -0.001823381007
 C   -0.522401976939   -1.731281931636    0.002138242961
 N    0.711010437364   -2.329959626098    0.014176527866
 C    1.681433637420   -1.439783484487    0.002304070893
 N    1.478356800007   -0.078145350973   -0.004531089449
 H    2.282183925258    0.541815188782   -0.086519111871
 N    3.006888391657   -1.858458206167   -0.076043232342
 H    3.661424596989   -1.326654981767    0.491597544388
 H    3.085693479048   -2.859158350102    0.085540105647
 C    0.219083057690    0.607888352558    0.008422697228
 O    0.191502688585    1.836061437335    0.004334568800
 C   -0.853702068286   -0.365805036716    0.014623895168
 N   -2.224775370055   -0.179473991403    0.014548710452
 C   -2.718298864566   -1.418077005448    0.004218610787
 H   -3.775796777834   -1.672223627280    0.001271966361
 H   -1.857687040314   -3.393071220544   -0.010482932038
NA    0.108435341636    5.535108370295   -0.007978173688
