17

 N   -1.731700356347   -2.426106537733   -0.001691506177
 C   -0.521512289503   -1.770900334057    0.002270117791
 N    0.711900124800   -2.369578028519    0.014308402696
 C    1.682323324856   -1.479401886908    0.002435945723
 N    1.479246487443   -0.117763753394   -0.004399214619
 H    2.283073612694    0.502196786361   -0.086387237041
 N    3.007778079093   -1.898076608588   -0.075911357512
 H    3.662314284425   -1.366273384188    0.491729419218
 H    3.086583166484   -2.898776752523    0.085671980477
 C    0.219972745126    0.568269950137    0.008554572058
 O    0.192392376021    1.796443034914    0.004466443630
 C   -0.852812380850   -0.405423439137    0.014755769998
 N   -2.223885682619   -0.219092393824    0.014680585282
 C   -2.717409177130   -1.457695407869    0.004350485617
 H   -3.774907090398   -1.711842029701    0.001403841191
 H   -1.856797352878   -3.432689622965   -0.010351057208
NA    0.102589838778    5.795412692169   -0.008844629330
