17

 N   -1.731403793869   -2.439312671873   -0.001647547900
 C   -0.521215727025   -1.784106468197    0.002314076068
 N    0.712196687278   -2.382784162659    0.014352360973
 C    1.682619887334   -1.492608021048    0.002479904000
 N    1.479543049921   -0.130969887534   -0.004355256342
 H    2.283370175172    0.488990652221   -0.086343278764
 N    3.008074641571   -1.911282742728   -0.075867399235
 H    3.662610846903   -1.379479518328    0.491773377495
 H    3.086879728962   -2.911982886663    0.085715938754
 C    0.220269307604    0.555063815997    0.008598530335
 O    0.192688938499    1.783236900774    0.004510401907
 C   -0.852515818372   -0.418629573277    0.014799728275
 N   -2.223589120141   -0.232298527964    0.014724543559
 C   -2.717112614652   -1.470901542009    0.004394443894
 H   -3.774610527920   -1.725048163841    0.001447799468
 H   -1.856500790400   -3.445895757105   -0.010307098931
NA    0.100641337825    5.882180799460   -0.009133447877
