17

 N   -1.730810668912   -2.465724940153   -0.001559631347
 C   -0.520622602068   -1.810518736477    0.002401992621
 N    0.712789812235   -2.409196430939    0.014440277526
 C    1.683213012291   -1.519020289328    0.002567820553
 N    1.480136174878   -0.157382155814   -0.004267339789
 H    2.283963300129    0.462578383941   -0.086255362211
 N    3.008667766528   -1.937695011008   -0.075779482682
 H    3.663203971860   -1.405891786608    0.491861294048
 H    3.087472853919   -2.938395154943    0.085803855307
 C    0.220862432561    0.528651547717    0.008686446888
 O    0.193282063456    1.756824632494    0.004598318460
 C   -0.851922693415   -0.445041841557    0.014887644828
 N   -2.222995995184   -0.258710796244    0.014812460112
 C   -2.716519489695   -1.497313810289    0.004482360447
 H   -3.774017402963   -1.751460432121    0.001535716021
 H   -1.855907665443   -3.472308025385   -0.010219182378
NA    0.096744335920    6.055717014042   -0.009711084971
