17

 N   -1.730514106433   -2.478931074294   -0.001515673070
 C   -0.520326039589   -1.823724870618    0.002445950898
 N    0.713086374714   -2.422402565080    0.014484235803
 C    1.683509574770   -1.532226423469    0.002611778830
 N    1.480432737357   -0.170588289955   -0.004223381512
 H    2.284259862608    0.449372249800   -0.086211403934
 N    3.008964329007   -1.950901145149   -0.075735524405
 H    3.663500534339   -1.419097920749    0.491905252325
 H    3.087769416398   -2.951601289084    0.085847813584
 C    0.221158995040    0.515445413576    0.008730405165
 O    0.193578625935    1.743618498353    0.004642276737
 C   -0.851626130936   -0.458247975698    0.014931603105
 N   -2.222699432705   -0.271916930385    0.014856418389
 C   -2.716222927216   -1.510519944430    0.004526318724
 H   -3.773720840484   -1.764666566262    0.001579674298
 H   -1.855611102964   -3.485514159526   -0.010175224101
NA    0.094795834967    6.142485121333   -0.009999903519
