17

 N   -1.730217543955   -2.492137208434   -0.001471714793
 C   -0.520029477111   -1.836931004758    0.002489909175
 N    0.713382937192   -2.435608699220    0.014528194080
 C    1.683806137248   -1.545432557609    0.002655737107
 N    1.480729299835   -0.183794424095   -0.004179423235
 H    2.284556425086    0.436166115660   -0.086167445657
 N    3.009260891485   -1.964107279289   -0.075691566128
 H    3.663797096817   -1.432304054889    0.491949210602
 H    3.088065978876   -2.964807423224    0.085891771861
 C    0.221455557518    0.502239279436    0.008774363442
 O    0.193875188413    1.730412364213    0.004686235014
 C   -0.851329568458   -0.471454109838    0.014975561382
 N   -2.222402870227   -0.285123064525    0.014900376666
 C   -2.715926364738   -1.523726078570    0.004570277001
 H   -3.773424278006   -1.777872700402    0.001623632575
 H   -1.855314540486   -3.498720293666   -0.010131265824
NA    0.092847334015    6.229253228624   -0.010288722066
