17

 N   -1.729624418998   -2.518549476714   -0.001383798240
 C   -0.519436352154   -1.863343273038    0.002577825728
 N    0.713976062149   -2.462020967500    0.014616110633
 C    1.684399262205   -1.571844825889    0.002743653660
 N    1.481322424792   -0.210206692375   -0.004091506682
 H    2.285149550043    0.409753847380   -0.086079529104
 N    3.009854016442   -1.990519547569   -0.075603649575
 H    3.664390221774   -1.458716323169    0.492037127155
 H    3.088659103833   -2.991219691504    0.085979688414
 C    0.222048682475    0.475827011156    0.008862279995
 O    0.194468313370    1.704000095933    0.004774151567
 C   -0.850736443501   -0.497866378118    0.015063477935
 N   -2.221809745270   -0.311535332805    0.014988293219
 C   -2.715333239781   -1.550138346850    0.004658193554
 H   -3.772831153049   -1.804284968682    0.001711549128
 H   -1.854721415529   -3.525132561946   -0.010043349271
NA    0.088950332110    6.402789443207   -0.010866359160
