17

 N   -1.727845044127   -2.597786281556   -0.001120048579
 C   -0.517656977283   -1.942580077880    0.002841575389
 N    0.715755437020   -2.541257772342    0.014879860294
 C    1.686178637076   -1.651081630731    0.003007403321
 N    1.483101799663   -0.289443497217   -0.003827757021
 H    2.286928924914    0.330517042538   -0.085815779443
 N    3.011633391313   -2.069756352411   -0.075339899914
 H    3.666169596645   -1.537953128011    0.492300876816
 H    3.090438478704   -3.070456496346    0.086243438075
 C    0.223828057346    0.396590206314    0.009126029656
 O    0.196247688241    1.624763291091    0.005037901228
 C   -0.848957068630   -0.577103182960    0.015327227596
 N   -2.220030370399   -0.390772137647    0.015252042880
 C   -2.713553864910   -1.629375151692    0.004921943215
 H   -3.771051778178   -1.883521773524    0.001975298789
 H   -1.852942040658   -3.604369366788   -0.009779599610
NA    0.077259326394    6.923398086953   -0.012599270443
