17

 N   -1.726955356691   -2.637404683976   -0.000988173749
 C   -0.516767289847   -1.982198480300    0.002973450219
 N    0.716645124456   -2.580876174762    0.015011735124
 C    1.687068324512   -1.690700033151    0.003139278151
 N    1.483991487099   -0.329061899637   -0.003695882191
 H    2.287818612350    0.290898640118   -0.085683904613
 N    3.012523078749   -2.109374754831   -0.075208025084
 H    3.667059284081   -1.577571530431    0.492432751646
 H    3.091328166140   -3.110074898766    0.086375312905
 C    0.224717744782    0.356971803894    0.009257904486
 O    0.197137375677    1.585144888671    0.005169776058
 C   -0.848067381194   -0.616721585380    0.015459102426
 N   -2.219140682963   -0.430390540067    0.015383917710
 C   -2.712664177474   -1.668993554112    0.005053818045
 H   -3.770162090742   -1.923140175944    0.002107173619
 H   -1.852052353222   -3.643987769208   -0.009647724780
NA    0.071413823536    7.183702408827   -0.013465726085
