17

 N   -1.726362231734   -2.663816952257   -0.000900257195
 C   -0.516174164890   -2.008610748581    0.003061366773
 N    0.717238249413   -2.607288443043    0.015099651678
 C    1.687661449469   -1.717112301432    0.003227194705
 N    1.484584612056   -0.355474167918   -0.003607965637
 H    2.288411737307    0.264486371837   -0.085595988059
 N    3.013116203706   -2.135787023112   -0.075120108530
 H    3.667652409038   -1.603983798712    0.492520668200
 H    3.091921291097   -3.136487167047    0.086463229459
 C    0.225310869739    0.330559535613    0.009345821040
 O    0.197730500634    1.558732620390    0.005257692612
 C   -0.847474256237   -0.643133853661    0.015547018980
 N   -2.218547558006   -0.456802808348    0.015471834264
 C   -2.712071052517   -1.695405822393    0.005141734599
 H   -3.769568965785   -1.949552444225    0.002195090173
 H   -1.851459228265   -3.670400037489   -0.009559808226
NA    0.067516821631    7.357238623409   -0.014043363179
