17

 N   -1.726065669256   -2.677023086397   -0.000856298918
 C   -0.515877602412   -2.021816882721    0.003105325050
 N    0.717534811891   -2.620494577183    0.015143609955
 C    1.687958011947   -1.730318435572    0.003271152982
 N    1.484881174534   -0.368680302058   -0.003564007360
 H    2.288708299785    0.251280237697   -0.085552029782
 N    3.013412766184   -2.148993157252   -0.075076150253
 H    3.667948971516   -1.617189932852    0.492564626477
 H    3.092217853575   -3.149693301187    0.086507187736
 C    0.225607432217    0.317353401473    0.009389779317
 O    0.198027063112    1.545526486250    0.005301650889
 C   -0.847177693759   -0.656339987801    0.015590977257
 N   -2.218250995528   -0.470008942488    0.015515792541
 C   -2.711774490039   -1.708611956533    0.005185692876
 H   -3.769272403307   -1.962758578365    0.002239048450
 H   -1.851162665787   -3.683606171629   -0.009515849949
NA    0.065568320679    7.444006730700   -0.014332181727
