17

 N   -1.725769106777   -2.690229220537   -0.000812340641
 C   -0.515581039933   -2.035023016861    0.003149283327
 N    0.717831374370   -2.633700711323    0.015187568232
 C    1.688254574426   -1.743524569712    0.003315111259
 N    1.485177737013   -0.381886436198   -0.003520049083
 H    2.289004862264    0.238074103557   -0.085508071505
 N    3.013709328663   -2.162199291392   -0.075032191976
 H    3.668245533995   -1.630396066992    0.492608584754
 H    3.092514416054   -3.162899435327    0.086551146013
 C    0.225903994696    0.304147267333    0.009433737594
 O    0.198323625591    1.532320352110    0.005345609166
 C   -0.846881131280   -0.669546121941    0.015634935534
 N   -2.217954433049   -0.483215076628    0.015559750818
 C   -2.711477927560   -1.721818090673    0.005229651153
 H   -3.768975840828   -1.975964712505    0.002283006727
 H   -1.850866103308   -3.696812305769   -0.009471891672
NA    0.063619819726    7.530774837991   -0.014621000274
