17

 N   -1.724879419342   -2.729847622958   -0.000680465811
 C   -0.514691352498   -2.074641419282    0.003281158157
 N    0.718721061805   -2.673319113744    0.015319443062
 C    1.689144261861   -1.783142972133    0.003446986089
 N    1.486067424448   -0.421504838619   -0.003388174253
 H    2.289894549699    0.198455701136   -0.085376196675
 N    3.014599016098   -2.201817693813   -0.074900317146
 H    3.669135221430   -1.670014469413    0.492740459584
 H    3.093404103489   -3.202517837748    0.086683020843
 C    0.226793682131    0.264528864912    0.009565612424
 O    0.199213313026    1.492701949689    0.005477483996
 C   -0.845991443845   -0.709164524362    0.015766810364
 N   -2.217064745614   -0.522833479049    0.015691625648
 C   -2.710588240125   -1.761436493094    0.005361525983
 H   -3.768086153393   -2.015583114926    0.002414881557
 H   -1.849976415873   -3.736430708190   -0.009340016842
NA    0.057774316868    7.791079159865   -0.015487455915
