17

 N   -1.724286294385   -2.756259891238   -0.000592549257
 C   -0.514098227541   -2.101053687562    0.003369074711
 N    0.719314186762   -2.699731382024    0.015407359616
 C    1.689737386818   -1.809555240413    0.003534902643
 N    1.486660549405   -0.447917106899   -0.003300257699
 H    2.290487674656    0.172043432856   -0.085288280121
 N    3.015192141055   -2.228229962093   -0.074812400592
 H    3.669728346387   -1.696426737693    0.492828376138
 H    3.093997228446   -3.228930106028    0.086770937397
 C    0.227386807088    0.238116596632    0.009653528978
 O    0.199806437983    1.466289681409    0.005565400550
 C   -0.845398318888   -0.735576792642    0.015854726918
 N   -2.216471620657   -0.549245747329    0.015779542202
 C   -2.709995115168   -1.787848761374    0.005449442537
 H   -3.767493028436   -2.041995383206    0.002502798111
 H   -1.849383290916   -3.762842976470   -0.009252100288
NA    0.053877314963    7.964615374447   -0.016065093010
