17

 N   -1.721024107121   -2.901527366781   -0.000109008213
 C   -0.510836040277   -2.246321163105    0.003852615755
 N    0.722576374026   -2.844998857567    0.015890900660
 C    1.692999574082   -1.954822715956    0.004018443687
 N    1.489922736669   -0.593184582442   -0.002816716655
 H    2.293749861920    0.026775957313   -0.084804739077
 N    3.018454328319   -2.373497437636   -0.074328859548
 H    3.672990533651   -1.841694213236    0.493311917182
 H    3.097259415710   -3.374197581571    0.087254478441
 C    0.230648994352    0.092849121089    0.010137070022
 O    0.203068625247    1.321022205866    0.006048941594
 C   -0.842136131624   -0.880844268185    0.016338267962
 N   -2.213209433393   -0.694513222872    0.016263083246
 C   -2.706732927904   -1.933116236917    0.005932983581
 H   -3.764230841172   -2.187262858749    0.002986339155
 H   -1.846121103652   -3.908110452013   -0.008768559244
NA    0.032443804485    8.919064554650   -0.019242097029
