17

 N   -1.720134419686   -2.941145769202    0.000022866618
 C   -0.509946352842   -2.285939565526    0.003984490586
 N    0.723466061461   -2.884617259988    0.016022775491
 C    1.693889261517   -1.994441118377    0.004150318518
 N    1.490812424104   -0.632802984863   -0.002684841824
 H    2.294639549355   -0.012842445108   -0.084672864246
 N    3.019344015754   -2.413115840057   -0.074196984717
 H    3.673880221086   -1.881312615657    0.493443792013
 H    3.098149103145   -3.413815983992    0.087386353272
 C    0.231538681787    0.053230718668    0.010268944853
 O    0.203958312682    1.281403803445    0.006180816425
 C   -0.841246444189   -0.920462670606    0.016470142793
 N   -2.212319745958   -0.734131625293    0.016394958077
 C   -2.705843240469   -1.972734639338    0.006064858412
 H   -3.763341153737   -2.226881261170    0.003118213986
 H   -1.845231416217   -3.947728854434   -0.008636684413
NA    0.026598301627    9.179368876523   -0.020108552671
