17

 N   -1.719244732250   -2.980764171622    0.000154741448
 C   -0.509056665406   -2.325557967946    0.004116365416
 N    0.724355748897   -2.924235662408    0.016154650321
 C    1.694778948953   -2.034059520797    0.004282193348
 N    1.491702111540   -0.672421387283   -0.002552966994
 H    2.295529236791   -0.052460847528   -0.084540989416
 N    3.020233703190   -2.452734242477   -0.074065109887
 H    3.674769908522   -1.920931018077    0.493575666843
 H    3.099038790581   -3.453434386412    0.087518228102
 C    0.232428369223    0.013612316248    0.010400819683
 O    0.204848000118    1.241785401025    0.006312691255
 C   -0.840356756753   -0.960081073026    0.016602017623
 N   -2.211430058522   -0.773750027713    0.016526832907
 C   -2.704953553033   -2.012353041758    0.006196733242
 H   -3.762451466301   -2.266499663590    0.003250088816
 H   -1.844341728781   -3.987347256854   -0.008504809583
NA    0.020752798769    9.439673198396   -0.020975008312
