17

 N   -1.717465357379   -3.060000976464    0.000418491109
 C   -0.507277290535   -2.404794772788    0.004380115077
 N    0.726135123768   -3.003472467250    0.016418399982
 C    1.696558323824   -2.113296325639    0.004545943009
 N    1.493481486411   -0.751658192125   -0.002289217333
 H    2.297308611662   -0.131697652370   -0.084277239755
 N    3.022013078061   -2.531971047319   -0.073801360226
 H    3.676549283393   -2.000167822919    0.493839416504
 H    3.100818165452   -3.532671191254    0.087781977763
 C    0.234207744094   -0.065624488594    0.010664569344
 O    0.206627374989    1.162548596183    0.006576440916
 C   -0.838577381882   -1.039317877868    0.016865767284
 N   -2.209650683651   -0.852986832555    0.016790582568
 C   -2.703174178162   -2.091589846600    0.006460482903
 H   -3.760672091430   -2.345736468432    0.003513838477
 H   -1.842562353910   -4.066584061696   -0.008241059922
NA    0.009061793054    9.960281842143   -0.022707919596
