17

 N   -1.716872232422   -3.086413244744    0.000506407662
 C   -0.506684165578   -2.431207041068    0.004468031630
 N    0.726728248725   -3.029884735530    0.016506316535
 C    1.697151448781   -2.139708593919    0.004633859562
 N    1.494074611368   -0.778070460405   -0.002201300780
 H    2.297901736619   -0.158109920650   -0.084189323202
 N    3.022606203018   -2.558383315599   -0.073713443673
 H    3.677142408350   -2.026580091199    0.493927333057
 H    3.101411290409   -3.559083459534    0.087869894316
 C    0.234800869051   -0.092036756874    0.010752485897
 O    0.207220499946    1.136136327903    0.006664357469
 C   -0.837984256925   -1.065730146148    0.016953683837
 N   -2.209057558694   -0.879399100835    0.016878499121
 C   -2.702581053205   -2.118002114880    0.006548399456
 H   -3.760078966473   -2.372148736712    0.003601755030
 H   -1.841969228953   -4.092996329976   -0.008153143369
NA    0.005164791148   10.133818056725   -0.023285556690
