28

 C    1.362976125319   -2.041500248190    0.000000000000
 N    1.956786125319   -0.850370248190    0.000000000000
 H    1.346236125319   -0.024970248190    0.000000000000
 H    2.960056125319   -0.757780248190    0.000000000000
 N    0.036676125319   -2.096730248190    0.000000000000
 H   -0.464733874681   -1.198710248190    0.000000000000
 H   -0.461303874681   -2.971930248190    0.000000000000
 N    2.097036125319   -3.184380248190    0.000000000000
 H    3.102186125319   -3.097990248190    0.000000000000
 C    1.491576125319   -4.505850248190    0.000000000000
 H    2.294036125319   -5.251550248190    0.000000000000
 H    0.876066125319   -4.661710248190    0.899750000000
 H    0.876066125319   -4.661710248190   -0.899750000000
CL   -0.358333874681    0.536719751810    1.756690000000
CL   -0.358333874681    0.536719751810   -1.756690000000
 C   -1.024643038183    1.534733829183    0.000000000000
 N   -1.618456453043    0.343605409602    0.000000000000
 H   -1.007901479427   -0.481800215889    0.000000000000
 H   -2.621722990918    0.251015156974    0.000000000000
 N    0.301657540530    1.589963145735    0.000000000000
 H    0.803070226789    0.691943820520    0.000000000000
 H    0.799635449691    2.465158155140    0.000000000000
 N   -1.758701691199    2.677621013612    0.000000000000
 H   -2.763855432839    2.591223934569    0.000000000000
 C   -1.153234574285    3.999088120745    0.000000000000
 H   -1.955698978549    4.744783489101    0.000000000000
 H   -0.537725659132    4.154947944791   -0.899745507916
 H   -0.537725659132    4.154947944791    0.899745507916
