28

 C    1.381835576145   -2.069748392516    0.000000000000
 N    1.975645576145   -0.878618392516    0.000000000000
 H    1.365095576145   -0.053218392516    0.000000000000
 H    2.978915576145   -0.786028392516    0.000000000000
 N    0.055535576145   -2.124978392516    0.000000000000
 H   -0.445874423855   -1.226958392516    0.000000000000
 H   -0.442444423855   -3.000178392516    0.000000000000
 N    2.115895576145   -3.212628392516    0.000000000000
 H    3.121045576145   -3.126238392516    0.000000000000
 C    1.510435576145   -4.534098392516    0.000000000000
 H    2.312895576145   -5.279798392516    0.000000000000
 H    0.894925576145   -4.689958392516    0.899750000000
 H    0.894925576145   -4.689958392516   -0.899750000000
CL   -0.339474423855    0.508471607484    1.756690000000
CL   -0.339474423855    0.508471607484   -1.756690000000
 C   -1.061309350982    1.589653524638    0.000000000000
 N   -1.655122765842    0.398525105058    0.000000000000
 H   -1.044567792226   -0.426880520434    0.000000000000
 H   -2.658389303716    0.305934852429    0.000000000000
 N    0.264991227731    1.644882841190    0.000000000000
 H    0.766403913990    0.746863515975    0.000000000000
 H    0.762969136892    2.520077850595    0.000000000000
 N   -1.795368003997    2.732540709067    0.000000000000
 H   -2.800521745637    2.646143630024    0.000000000000
 C   -1.189900887083    4.054007816200    0.000000000000
 H   -1.992365291348    4.799703184557    0.000000000000
 H   -0.574391971930    4.209867640246   -0.899745507916
 H   -0.574391971930    4.209867640246    0.899745507916
