28

 C    1.400695026971   -2.097996536842    0.000000000000
 N    1.994505026971   -0.906866536842    0.000000000000
 H    1.383955026971   -0.081466536842    0.000000000000
 H    2.997775026971   -0.814276536842    0.000000000000
 N    0.074395026971   -2.153226536842    0.000000000000
 H   -0.427014973029   -1.255206536842    0.000000000000
 H   -0.423584973029   -3.028426536842    0.000000000000
 N    2.134755026971   -3.240876536842    0.000000000000
 H    3.139905026971   -3.154486536842    0.000000000000
 C    1.529295026971   -4.562346536842    0.000000000000
 H    2.331755026971   -5.308046536842    0.000000000000
 H    0.913785026971   -4.718206536842    0.899750000000
 H    0.913785026971   -4.718206536842   -0.899750000000
CL   -0.320614973029    0.480223463158    1.756690000000
CL   -0.320614973029    0.480223463158   -1.756690000000
 C   -1.097975663780    1.644573220093    0.000000000000
 N   -1.691789078641    0.453444800513    0.000000000000
 H   -1.081234105025   -0.371960824979    0.000000000000
 H   -2.695055616515    0.360854547884    0.000000000000
 N    0.228324914932    1.699802536645    0.000000000000
 H    0.729737601192    0.801783211431    0.000000000000
 H    0.726302824093    2.574997546050    0.000000000000
 N   -1.832034316796    2.787460404522    0.000000000000
 H   -2.837188058436    2.701063325479    0.000000000000
 C   -1.226567199882    4.108927511656    0.000000000000
 H   -2.029031604147    4.854622880012    0.000000000000
 H   -0.611058284729    4.264787335701   -0.899745507916
 H   -0.611058284729    4.264787335701    0.899745507916
