28

 C    1.476132830277   -2.210989114145    0.000000000000
 N    2.069942830277   -1.019859114145    0.000000000000
 H    1.459392830277   -0.194459114145    0.000000000000
 H    3.073212830277   -0.927269114145    0.000000000000
 N    0.149832830277   -2.266219114145    0.000000000000
 H   -0.351577169723   -1.368199114145    0.000000000000
 H   -0.348147169723   -3.141419114145    0.000000000000
 N    2.210192830277   -3.353869114145    0.000000000000
 H    3.215342830277   -3.267479114145    0.000000000000
 C    1.604732830277   -4.675339114145    0.000000000000
 H    2.407192830277   -5.421039114145    0.000000000000
 H    0.989222830277   -4.831199114145    0.899750000000
 H    0.989222830277   -4.831199114145   -0.899750000000
CL   -0.245177169723    0.367230885855    1.756690000000
CL   -0.245177169723    0.367230885855   -1.756690000000
 C   -1.244640914975    1.864252001914    0.000000000000
 N   -1.838454329836    0.673123582333    0.000000000000
 H   -1.227899356219   -0.152282043158    0.000000000000
 H   -2.841720867710    0.580533329705    0.000000000000
 N    0.081659663737    1.919481318466    0.000000000000
 H    0.583072349997    1.021461993251    0.000000000000
 H    0.579637572899    2.794676327871    0.000000000000
 N   -1.978699567991    3.007139186343    0.000000000000
 H   -2.983853309631    2.920742107300    0.000000000000
 C   -1.373232451077    4.328606293476    0.000000000000
 H   -2.175696855342    5.074301661832    0.000000000000
 H   -0.757723535924    4.484466117522   -0.899745507916
 H   -0.757723535924    4.484466117522    0.899745507916
