28

 C    1.494992281103   -2.239237258471    0.000000000000
 N    2.088802281103   -1.048107258471    0.000000000000
 H    1.478252281103   -0.222707258471    0.000000000000
 H    3.092072281103   -0.955517258471    0.000000000000
 N    0.168692281103   -2.294467258471    0.000000000000
 H   -0.332717718897   -1.396447258471    0.000000000000
 H   -0.329287718897   -3.169667258471    0.000000000000
 N    2.229052281103   -3.382117258471    0.000000000000
 H    3.234202281103   -3.295727258471    0.000000000000
 C    1.623592281103   -4.703587258471    0.000000000000
 H    2.426052281103   -5.449287258471    0.000000000000
 H    1.008082281103   -4.859447258471    0.899750000000
 H    1.008082281103   -4.859447258471   -0.899750000000
CL   -0.226317718897    0.338982741529    1.756690000000
CL   -0.226317718897    0.338982741529   -1.756690000000
 C   -1.281307227774    1.919171697369    0.000000000000
 N   -1.875120642634    0.728043277789    0.000000000000
 H   -1.264565669018   -0.097362347703    0.000000000000
 H   -2.878387180509    0.635453025160    0.000000000000
 N    0.044993350939    1.974401013921    0.000000000000
 H    0.546406037198    1.076381688706    0.000000000000
 H    0.542971260100    2.849596023326    0.000000000000
 N   -2.015365880790    3.062058881798    0.000000000000
 H   -3.020519622430    2.975661802755    0.000000000000
 C   -1.409898763876    4.383525988931    0.000000000000
 H   -2.212363168141    5.129221357288    0.000000000000
 H   -0.794389848723    4.539385812977   -0.899745507916
 H   -0.794389848723    4.539385812977    0.899745507916
