28

 C    3.022607798040   -4.527336948868    0.000000000000
 N    3.616417798040   -3.336206948868    0.000000000000
 H    3.005867798040   -2.510806948868    0.000000000000
 H    4.619687798040   -3.243616948868    0.000000000000
 N    1.696307798040   -4.582566948868    0.000000000000
 H    1.194897798040   -3.684546948868    0.000000000000
 H    1.198327798040   -5.457766948868    0.000000000000
 N    3.756667798040   -5.670216948868    0.000000000000
 H    4.761817798040   -5.583826948868    0.000000000000
 C    3.151207798040   -6.991686948868    0.000000000000
 H    3.953667798040   -7.737386948868    0.000000000000
 H    2.535697798040   -7.147546948868    0.899750000000
 H    2.535697798040   -7.147546948868   -0.899750000000
CL    1.301297798040   -1.949116948868    1.756690000000
CL    1.301297798040   -1.949116948868   -1.756690000000
 C   -4.251278564471    6.367667029238    0.000000000000
 N   -4.845091979332    5.176538609658    0.000000000000
 H   -4.234537005715    4.351132984166    0.000000000000
 H   -5.848358517206    5.083948357029    0.000000000000
 N   -2.924977985759    6.422896345790    0.000000000000
 H   -2.423565299499    5.524877020575    0.000000000000
 H   -2.427000076597    7.298091355195    0.000000000000
 N   -4.985337217487    7.510554213667    0.000000000000
 H   -5.990490959127    7.424157134624    0.000000000000
 C   -4.379870100573    8.832021320800    0.000000000000
 H   -5.182334504838    9.577716689157    0.000000000000
 H   -3.764361185420    8.987881144846   -0.899745507916
 H   -3.764361185420    8.987881144846    0.899745507916
