28

 C    1.513851731930   -2.267485402797    0.000000000000
 N    2.107661731930   -1.076355402797    0.000000000000
 H    1.497111731930   -0.250955402797    0.000000000000
 H    3.110931731930   -0.983765402797    0.000000000000
 N    0.187551731930   -2.322715402797    0.000000000000
 H   -0.313858268070   -1.424695402797    0.000000000000
 H   -0.310428268070   -3.197915402797    0.000000000000
 N    2.247911731930   -3.410365402797    0.000000000000
 H    3.253061731930   -3.323975402797    0.000000000000
 C    1.642451731930   -4.731835402797    0.000000000000
 H    2.444911731930   -5.477535402797    0.000000000000
 H    1.026941731930   -4.887695402797    0.899750000000
 H    1.026941731930   -4.887695402797   -0.899750000000
CL   -0.207458268070    0.310734597203    1.756690000000
CL   -0.207458268070    0.310734597203   -1.756690000000
 C   -1.317973540573    1.974091392824    0.000000000000
 N   -1.911786955433    0.782962973244    0.000000000000
 H   -1.301231981817   -0.042442652248    0.000000000000
 H   -2.915053493307    0.690372720615    0.000000000000
 N    0.008327038140    2.029320709376    0.000000000000
 H    0.509739724399    1.131301384162    0.000000000000
 H    0.506304947301    2.904515718781    0.000000000000
 N   -2.052032193589    3.116978577253    0.000000000000
 H   -3.057185935229    3.030581498210    0.000000000000
 C   -1.446565076674    4.438445684387    0.000000000000
 H   -2.249029480939    5.184141052743    0.000000000000
 H   -0.831056161521    4.594305508432   -0.899745507916
 H   -0.831056161521    4.594305508432    0.899745507916
