28

 C    1.532711182756   -2.295733547123    0.000000000000
 N    2.126521182756   -1.104603547123    0.000000000000
 H    1.515971182756   -0.279203547123    0.000000000000
 H    3.129791182756   -1.012013547123    0.000000000000
 N    0.206411182756   -2.350963547123    0.000000000000
 H   -0.294998817244   -1.452943547123    0.000000000000
 H   -0.291568817244   -3.226163547123    0.000000000000
 N    2.266771182756   -3.438613547123    0.000000000000
 H    3.271921182756   -3.352223547123    0.000000000000
 C    1.661311182756   -4.760083547123    0.000000000000
 H    2.463771182756   -5.505783547123    0.000000000000
 H    1.045801182756   -4.915943547123    0.899750000000
 H    1.045801182756   -4.915943547123   -0.899750000000
CL   -0.188598817244    0.282486452877    1.756690000000
CL   -0.188598817244    0.282486452877   -1.756690000000
 C   -1.354639853371    2.029011088279    0.000000000000
 N   -1.948453268232    0.837882668699    0.000000000000
 H   -1.337898294616    0.012477043208    0.000000000000
 H   -2.951719806106    0.745292416070    0.000000000000
 N   -0.028339274659    2.084240404831    0.000000000000
 H    0.473073411600    1.186221079617    0.000000000000
 H    0.469638634502    2.959435414236    0.000000000000
 N   -2.088698506387    3.171898272708    0.000000000000
 H   -3.093852248027    3.085501193666    0.000000000000
 C   -1.483231389473    4.493365379842    0.000000000000
 H   -2.285695793738    5.239060748198    0.000000000000
 H   -0.867722474320    4.649225203887   -0.899745507916
 H   -0.867722474320    4.649225203887    0.899745507916
