28

 C    1.551570633582   -2.323981691449    0.000000000000
 N    2.145380633582   -1.132851691449    0.000000000000
 H    1.534830633582   -0.307451691449    0.000000000000
 H    3.148650633582   -1.040261691449    0.000000000000
 N    0.225270633582   -2.379211691449    0.000000000000
 H   -0.276139366418   -1.481191691449    0.000000000000
 H   -0.272709366418   -3.254411691449    0.000000000000
 N    2.285630633582   -3.466861691449    0.000000000000
 H    3.290780633582   -3.380471691449    0.000000000000
 C    1.680170633582   -4.788331691449    0.000000000000
 H    2.482630633582   -5.534031691449    0.000000000000
 H    1.064660633582   -4.944191691449    0.899750000000
 H    1.064660633582   -4.944191691449   -0.899750000000
CL   -0.169739366418    0.254238308551    1.756690000000
CL   -0.169739366418    0.254238308551   -1.756690000000
 C   -1.391306166170    2.083930783734    0.000000000000
 N   -1.985119581031    0.892802364154    0.000000000000
 H   -1.374564607414    0.067396738663    0.000000000000
 H   -2.988386118905    0.800212111526    0.000000000000
 N   -0.065005587458    2.139160100286    0.000000000000
 H    0.436407098802    1.241140775072    0.000000000000
 H    0.432972321704    3.014355109691    0.000000000000
 N   -2.125364819186    3.226817968164    0.000000000000
 H   -3.130518560826    3.140420889121    0.000000000000
 C   -1.519897702272    4.548285075297    0.000000000000
 H   -2.322362106537    5.293980443653    0.000000000000
 H   -0.904388787119    4.704144899343   -0.899745507916
 H   -0.904388787119    4.704144899343    0.899745507916
