28

 C    1.570430084409   -2.352229835775    0.000000000000
 N    2.164240084409   -1.161099835775    0.000000000000
 H    1.553690084409   -0.335699835775    0.000000000000
 H    3.167510084409   -1.068509835775    0.000000000000
 N    0.244130084409   -2.407459835775    0.000000000000
 H   -0.257279915591   -1.509439835775    0.000000000000
 H   -0.253849915591   -3.282659835775    0.000000000000
 N    2.304490084409   -3.495109835775    0.000000000000
 H    3.309640084409   -3.408719835775    0.000000000000
 C    1.699030084409   -4.816579835775    0.000000000000
 H    2.501490084409   -5.562279835775    0.000000000000
 H    1.083520084409   -4.972439835775    0.899750000000
 H    1.083520084409   -4.972439835775   -0.899750000000
CL   -0.150879915591    0.225990164225    1.756690000000
CL   -0.150879915591    0.225990164225   -1.756690000000
 C   -1.427972478969    2.138850479189    0.000000000000
 N   -2.021785893829    0.947722059609    0.000000000000
 H   -1.411230920213    0.122316434118    0.000000000000
 H   -3.025052431704    0.855131806981    0.000000000000
 N   -0.101671900256    2.194079795741    0.000000000000
 H    0.399740786003    1.296060470527    0.000000000000
 H    0.396306008905    3.069274805146    0.000000000000
 N   -2.162031131985    3.281737663619    0.000000000000
 H   -3.167184873625    3.195340584576    0.000000000000
 C   -1.556564015071    4.603204770752    0.000000000000
 H   -2.359028419335    5.348900139108    0.000000000000
 H   -0.941055099918    4.759064594798   -0.899745507916
 H   -0.941055099918    4.759064594798    0.899745507916
