28

 C    1.589289535235   -2.380477980101    0.000000000000
 N    2.183099535235   -1.189347980101    0.000000000000
 H    1.572549535235   -0.363947980101    0.000000000000
 H    3.186369535235   -1.096757980101    0.000000000000
 N    0.262989535235   -2.435707980101    0.000000000000
 H   -0.238420464765   -1.537687980101    0.000000000000
 H   -0.234990464765   -3.310907980101    0.000000000000
 N    2.323349535235   -3.523357980101    0.000000000000
 H    3.328499535235   -3.436967980101    0.000000000000
 C    1.717889535235   -4.844827980101    0.000000000000
 H    2.520349535235   -5.590527980101    0.000000000000
 H    1.102379535235   -5.000687980101    0.899750000000
 H    1.102379535235   -5.000687980101   -0.899750000000
CL   -0.132020464765    0.197742019899    1.756690000000
CL   -0.132020464765    0.197742019899   -1.756690000000
 C   -1.464638791768    2.193770174645    0.000000000000
 N   -2.058452206628    1.002641755064    0.000000000000
 H   -1.447897233012    0.177236129573    0.000000000000
 H   -3.061718744502    0.910051502436    0.000000000000
 N   -0.138338213055    2.248999491197    0.000000000000
 H    0.363074473204    1.350980165982    0.000000000000
 H    0.359639696106    3.124194500602    0.000000000000
 N   -2.198697444783    3.336657359074    0.000000000000
 H   -3.203851186423    3.250260280031    0.000000000000
 C   -1.593230327869    4.658124466207    0.000000000000
 H   -2.395694732134    5.403819834563    0.000000000000
 H   -0.977721412716    4.813984290253   -0.899745507916
 H   -0.977721412716    4.813984290253    0.899745507916
