28

 C    1.645867887714   -2.465222413078    0.000000000000
 N    2.239677887714   -1.274092413078    0.000000000000
 H    1.629127887714   -0.448692413078    0.000000000000
 H    3.242947887714   -1.181502413078    0.000000000000
 N    0.319567887714   -2.520452413078    0.000000000000
 H   -0.181842112286   -1.622432413078    0.000000000000
 H   -0.178412112286   -3.395652413078    0.000000000000
 N    2.379927887714   -3.608102413078    0.000000000000
 H    3.385077887714   -3.521712413078    0.000000000000
 C    1.774467887714   -4.929572413078    0.000000000000
 H    2.576927887714   -5.675272413078    0.000000000000
 H    1.158957887714   -5.085432413078    0.899750000000
 H    1.158957887714   -5.085432413078   -0.899750000000
CL   -0.075442112286    0.112997586922    1.756690000000
CL   -0.075442112286    0.112997586922   -1.756690000000
 C   -1.574637730164    2.358529261010    0.000000000000
 N   -2.168451145024    1.167400841430    0.000000000000
 H   -1.557896171408    0.341995215939    0.000000000000
 H   -3.171717682898    1.074810588802    0.000000000000
 N   -0.248337151451    2.413758577562    0.000000000000
 H    0.253075534808    1.515739252348    0.000000000000
 H    0.249640757710    3.288953586967    0.000000000000
 N   -2.308696383180    3.501416445439    0.000000000000
 H   -3.313850124820    3.415019366397    0.000000000000
 C   -1.703229266266    4.822883552573    0.000000000000
 H   -2.505693670530    5.568578920929    0.000000000000
 H   -1.087720351113    4.978743376619   -0.899745507916
 H   -1.087720351113    4.978743376619    0.899745507916
