28

 C    1.777884043499   -2.662959423360    0.000000000000
 N    2.371694043499   -1.471829423360    0.000000000000
 H    1.761144043499   -0.646429423360    0.000000000000
 H    3.374964043499   -1.379239423360    0.000000000000
 N    0.451584043499   -2.718189423360    0.000000000000
 H   -0.049825956501   -1.820169423360    0.000000000000
 H   -0.046395956501   -3.593389423360    0.000000000000
 N    2.511944043499   -3.805839423360    0.000000000000
 H    3.517094043499   -3.719449423360    0.000000000000
 C    1.906484043499   -5.127309423360    0.000000000000
 H    2.708944043499   -5.873009423360    0.000000000000
 H    1.290974043499   -5.283169423360    0.899750000000
 H    1.290974043499   -5.283169423360   -0.899750000000
CL    0.056574043499   -0.084739423360    1.756690000000
CL    0.056574043499   -0.084739423360   -1.756690000000
 C   -1.831301919755    2.742967129196    0.000000000000
 N   -2.425115334615    1.551838709616    0.000000000000
 H   -1.814560360999    0.726433084125    0.000000000000
 H   -3.428381872490    1.459248456988    0.000000000000
 N   -0.505001341042    2.798196445748    0.000000000000
 H   -0.003588654783    1.900177120534    0.000000000000
 H   -0.007023431881    3.673391455153    0.000000000000
 N   -2.565360572771    3.885854313626    0.000000000000
 H   -3.570514314411    3.799457234583    0.000000000000
 C   -1.959893455857    5.207321420759    0.000000000000
 H   -2.762357860122    5.953016789115    0.000000000000
 H   -1.344384540704    5.363181244805   -0.899745507916
 H   -1.344384540704    5.363181244805    0.899745507916
