28

 C    1.834462395978   -2.747703856337    0.000000000000
 N    2.428272395978   -1.556573856337    0.000000000000
 H    1.817722395978   -0.731173856337    0.000000000000
 H    3.431542395978   -1.463983856337    0.000000000000
 N    0.508162395978   -2.802933856337    0.000000000000
 H    0.006752395978   -1.904913856337    0.000000000000
 H    0.010182395978   -3.678133856337    0.000000000000
 N    2.568522395978   -3.890583856337    0.000000000000
 H    3.573672395978   -3.804193856337    0.000000000000
 C    1.963062395978   -5.212053856337    0.000000000000
 H    2.765522395978   -5.957753856337    0.000000000000
 H    1.347552395978   -5.367913856337    0.899750000000
 H    1.347552395978   -5.367913856337   -0.899750000000
CL    0.113152395978   -0.169483856337    1.756690000000
CL    0.113152395978   -0.169483856337   -1.756690000000
 C   -1.941300858151    2.907726215562    0.000000000000
 N   -2.535114273011    1.716597795982    0.000000000000
 H   -1.924559299395    0.891192170490    0.000000000000
 H   -3.538380810886    1.624007543353    0.000000000000
 N   -0.615000279439    2.962955532114    0.000000000000
 H   -0.113587593179    2.064936206900    0.000000000000
 H   -0.117022370277    3.838150541519    0.000000000000
 N   -2.675359511167    4.050613399991    0.000000000000
 H   -3.680513252807    3.964216320948    0.000000000000
 C   -2.069892394253    5.372080507125    0.000000000000
 H   -2.872356798518    6.117775875481    0.000000000000
 H   -1.454383479100    5.527940331170   -0.899745507916
 H   -1.454383479100    5.527940331170    0.899745507916
