28

 C    1.872181297631   -2.804200144989    0.000000000000
 N    2.465991297631   -1.613070144989    0.000000000000
 H    1.855441297631   -0.787670144989    0.000000000000
 H    3.469261297631   -1.520480144989    0.000000000000
 N    0.545881297631   -2.859430144989    0.000000000000
 H    0.044471297631   -1.961410144989    0.000000000000
 H    0.047901297631   -3.734630144989    0.000000000000
 N    2.606241297631   -3.947080144989    0.000000000000
 H    3.611391297631   -3.860690144989    0.000000000000
 C    2.000781297631   -5.268550144989    0.000000000000
 H    2.803241297631   -6.014250144989    0.000000000000
 H    1.385271297631   -5.424410144989    0.899750000000
 H    1.385271297631   -5.424410144989   -0.899750000000
CL    0.150871297631   -0.225980144989    1.756690000000
CL    0.150871297631   -0.225980144989   -1.756690000000
 C   -2.014633483749    3.017565606472    0.000000000000
 N   -2.608446898609    1.826437186892    0.000000000000
 H   -1.997891924993    1.001031561401    0.000000000000
 H   -3.611713436483    1.733846934264    0.000000000000
 N   -0.688332905036    3.072794923024    0.000000000000
 H   -0.186920218777    2.174775597810    0.000000000000
 H   -0.190354995875    3.947989932429    0.000000000000
 N   -2.748692136764    4.160452790901    0.000000000000
 H   -3.753845878404    4.074055711859    0.000000000000
 C   -2.143225019850    5.481919898035    0.000000000000
 H   -2.945689424115    6.227615266391    0.000000000000
 H   -1.527716104697    5.637779722081   -0.899745507916
 H   -1.527716104697    5.637779722081    0.899745507916
