28

 C    1.909900199284   -2.860696433641    0.000000000000
 N    2.503710199284   -1.669566433641    0.000000000000
 H    1.893160199284   -0.844166433641    0.000000000000
 H    3.506980199284   -1.576976433641    0.000000000000
 N    0.583600199284   -2.915926433641    0.000000000000
 H    0.082190199284   -2.017906433641    0.000000000000
 H    0.085620199284   -3.791126433641    0.000000000000
 N    2.643960199284   -4.003576433641    0.000000000000
 H    3.649110199284   -3.917186433641    0.000000000000
 C    2.038500199284   -5.325046433641    0.000000000000
 H    2.840960199284   -6.070746433641    0.000000000000
 H    1.422990199284   -5.480906433641    0.899750000000
 H    1.422990199284   -5.480906433641   -0.899750000000
CL    0.188590199284   -0.282476433641    1.756690000000
CL    0.188590199284   -0.282476433641   -1.756690000000
 C   -2.087966109346    3.127404997383    0.000000000000
 N   -2.681779524206    1.936276577802    0.000000000000
 H   -2.071224550590    1.110870952311    0.000000000000
 H   -3.685046062081    1.843686325174    0.000000000000
 N   -0.761665530633    3.182634313935    0.000000000000
 H   -0.260252844374    2.284614988720    0.000000000000
 H   -0.263687621472    4.057829323340    0.000000000000
 N   -2.822024762362    4.270292181812    0.000000000000
 H   -3.827178504002    4.183895102769    0.000000000000
 C   -2.216557645448    5.591759288945    0.000000000000
 H   -3.019022049713    6.337454657301    0.000000000000
 H   -1.601048730295    5.747619112991   -0.899745507916
 H   -1.601048730295    5.747619112991    0.899745507916
