28

 C    1.928759650110   -2.888944577967    0.000000000000
 N    2.522569650110   -1.697814577967    0.000000000000
 H    1.912019650110   -0.872414577967    0.000000000000
 H    3.525839650110   -1.605224577967    0.000000000000
 N    0.602459650110   -2.944174577967    0.000000000000
 H    0.101049650110   -2.046154577967    0.000000000000
 H    0.104479650110   -3.819374577967    0.000000000000
 N    2.662819650110   -4.031824577967    0.000000000000
 H    3.667969650110   -3.945434577967    0.000000000000
 C    2.057359650110   -5.353294577967    0.000000000000
 H    2.859819650110   -6.098994577967    0.000000000000
 H    1.441849650110   -5.509154577967    0.899750000000
 H    1.441849650110   -5.509154577967   -0.899750000000
CL    0.207449650110   -0.310724577967    1.756690000000
CL    0.207449650110   -0.310724577967   -1.756690000000
 C   -2.124632422145    3.182324692838    0.000000000000
 N   -2.718445837005    1.991196273258    0.000000000000
 H   -2.107890863389    1.165790647766    0.000000000000
 H   -3.721712374879    1.898606020629    0.000000000000
 N   -0.798331843432    3.237554009390    0.000000000000
 H   -0.296919157173    2.339534684175    0.000000000000
 H   -0.300353934271    4.112749018795    0.000000000000
 N   -2.858691075161    4.325211877267    0.000000000000
 H   -3.863844816801    4.238814798224    0.000000000000
 C   -2.253223958246    5.646678984400    0.000000000000
 H   -3.055688362511    6.392374352757    0.000000000000
 H   -1.637715043094    5.802538808446   -0.899745507916
 H   -1.637715043094    5.802538808446    0.899745507916
