28

 C    1.966478551763   -2.945440866619    0.000000000000
 N    2.560288551763   -1.754310866619    0.000000000000
 H    1.949738551763   -0.928910866619    0.000000000000
 H    3.563558551763   -1.661720866619    0.000000000000
 N    0.640178551763   -3.000670866619    0.000000000000
 H    0.138768551763   -2.102650866619    0.000000000000
 H    0.142198551763   -3.875870866619    0.000000000000
 N    2.700538551763   -4.088320866619    0.000000000000
 H    3.705688551763   -4.001930866619    0.000000000000
 C    2.095078551763   -5.409790866619    0.000000000000
 H    2.897538551763   -6.155490866619    0.000000000000
 H    1.479568551763   -5.565650866619    0.899750000000
 H    1.479568551763   -5.565650866619   -0.899750000000
CL    0.245168551763   -0.367220866619    1.756690000000
CL    0.245168551763   -0.367220866619   -1.756690000000
 C   -2.197965047742    3.292164083748    0.000000000000
 N   -2.791778462603    2.101035664168    0.000000000000
 H   -2.181223488986    1.275630038677    0.000000000000
 H   -3.795045000477    2.008445411539    0.000000000000
 N   -0.871664469030    3.347393400300    0.000000000000
 H   -0.370251782770    2.449374075086    0.000000000000
 H   -0.373686559868    4.222588409705    0.000000000000
 N   -2.932023700758    4.435051268177    0.000000000000
 H   -3.937177442398    4.348654189134    0.000000000000
 C   -2.326556583844    5.756518375311    0.000000000000
 H   -3.129020988109    6.502213743667    0.000000000000
 H   -1.711047668691    5.912378199356   -0.899745507916
 H   -1.711047668691    5.912378199356    0.899745507916
