28

 C    1.985338002589   -2.973689010944    0.000000000000
 N    2.579148002589   -1.782559010944    0.000000000000
 H    1.968598002589   -0.957159010944    0.000000000000
 H    3.582418002589   -1.689969010944    0.000000000000
 N    0.659038002589   -3.028919010944    0.000000000000
 H    0.157628002589   -2.130899010944    0.000000000000
 H    0.161058002589   -3.904119010944    0.000000000000
 N    2.719398002589   -4.116569010944    0.000000000000
 H    3.724548002589   -4.030179010944    0.000000000000
 C    2.113938002589   -5.438039010944    0.000000000000
 H    2.916398002589   -6.183739010944    0.000000000000
 H    1.498428002589   -5.593899010944    0.899750000000
 H    1.498428002589   -5.593899010944   -0.899750000000
CL    0.264028002589   -0.395469010944    1.756690000000
CL    0.264028002589   -0.395469010944   -1.756690000000
 C   -2.234631360541    3.347083779203    0.000000000000
 N   -2.828444775401    2.155955359623    0.000000000000
 H   -2.217889801785    1.330549734132    0.000000000000
 H   -3.831711313276    2.063365106995    0.000000000000
 N   -0.908330781828    3.402313095755    0.000000000000
 H   -0.406918095569    2.504293770541    0.000000000000
 H   -0.410352872667    4.277508105160    0.000000000000
 N   -2.968690013557    4.489970963632    0.000000000000
 H   -3.973843755197    4.403573884590    0.000000000000
 C   -2.363222896643    5.811438070766    0.000000000000
 H   -3.165687300908    6.557133439122    0.000000000000
 H   -1.747713981490    5.967297894812   -0.899745507916
 H   -1.747713981490    5.967297894812    0.899745507916
