28

 C    2.041916355068   -3.058433443922    0.000000000000
 N    2.635726355068   -1.867303443922    0.000000000000
 H    2.025176355068   -1.041903443922    0.000000000000
 H    3.638996355068   -1.774713443922    0.000000000000
 N    0.715616355068   -3.113663443922    0.000000000000
 H    0.214206355068   -2.215643443922    0.000000000000
 H    0.217636355068   -3.988863443922    0.000000000000
 N    2.775976355068   -4.201313443922    0.000000000000
 H    3.781126355068   -4.114923443922    0.000000000000
 C    2.170516355068   -5.522783443922    0.000000000000
 H    2.972976355068   -6.268483443922    0.000000000000
 H    1.555006355068   -5.678643443922    0.899750000000
 H    1.555006355068   -5.678643443922   -0.899750000000
CL    0.320606355068   -0.480213443922    1.756690000000
CL    0.320606355068   -0.480213443922   -1.756690000000
 C   -2.344630298937    3.511842865569    0.000000000000
 N   -2.938443713798    2.320714445989    0.000000000000
 H   -2.327888740181    1.495308820497    0.000000000000
 H   -3.941710251672    2.228124193360    0.000000000000
 N   -1.018329720225    3.567072182121    0.000000000000
 H   -0.516917033965    2.669052856906    0.000000000000
 H   -0.520351811063    4.442267191526    0.000000000000
 N   -3.078688951953    4.654730049998    0.000000000000
 H   -4.083842693593    4.568332970955    0.000000000000
 C   -2.473221835039    5.976197157131    0.000000000000
 H   -3.275686239304    6.721892525488    0.000000000000
 H   -1.857712919886    6.132056981177   -0.899745507916
 H   -1.857712919886    6.132056981177    0.899745507916
