28

 C    2.155073060027   -3.227922309877    0.000000000000
 N    2.748883060027   -2.036792309877    0.000000000000
 H    2.138333060027   -1.211392309877    0.000000000000
 H    3.752153060027   -1.944202309877    0.000000000000
 N    0.828773060027   -3.283152309877    0.000000000000
 H    0.327363060027   -2.385132309877    0.000000000000
 H    0.330793060027   -4.158352309877    0.000000000000
 N    2.889133060027   -4.370802309877    0.000000000000
 H    3.894283060027   -4.284412309877    0.000000000000
 C    2.283673060027   -5.692272309877    0.000000000000
 H    3.086133060027   -6.437972309877    0.000000000000
 H    1.668163060027   -5.848132309877    0.899750000000
 H    1.668163060027   -5.848132309877   -0.899750000000
CL    0.433763060027   -0.649702309877    1.756690000000
CL    0.433763060027   -0.649702309877   -1.756690000000
 C   -2.564628175729    3.841361038300    0.000000000000
 N   -3.158441590590    2.650232618720    0.000000000000
 H   -2.547886616974    1.824826993228    0.000000000000
 H   -4.161708128464    2.557642366091    0.000000000000
 N   -1.238327597017    3.896590354852    0.000000000000
 H   -0.736914910758    2.998571029638    0.000000000000
 H   -0.740349687856    4.771785364257    0.000000000000
 N   -3.298686828745    4.984248222729    0.000000000000
 H   -4.303840570385    4.897851143686    0.000000000000
 C   -2.693219711831    6.305715329862    0.000000000000
 H   -3.495684116096    7.051410698219    0.000000000000
 H   -2.077710796678    6.461575153908   -0.899745507916
 H   -2.077710796678    6.461575153908    0.899745507916
