28

 C    2.173932510853   -3.256170454203    0.000000000000
 N    2.767742510853   -2.065040454203    0.000000000000
 H    2.157192510853   -1.239640454203    0.000000000000
 H    3.771012510853   -1.972450454203    0.000000000000
 N    0.847632510853   -3.311400454203    0.000000000000
 H    0.346222510853   -2.413380454203    0.000000000000
 H    0.349652510853   -4.186600454203    0.000000000000
 N    2.907992510853   -4.399050454203    0.000000000000
 H    3.913142510853   -4.312660454203    0.000000000000
 C    2.302532510853   -5.720520454203    0.000000000000
 H    3.104992510853   -6.466220454203    0.000000000000
 H    1.687022510853   -5.876380454203    0.899750000000
 H    1.687022510853   -5.876380454203   -0.899750000000
CL    0.452622510853   -0.677950454203    1.756690000000
CL    0.452622510853   -0.677950454203   -1.756690000000
 C   -2.601294488528    3.896280733755    0.000000000000
 N   -3.195107903389    2.705152314175    0.000000000000
 H   -2.584552929773    1.879746688684    0.000000000000
 H   -4.198374441263    2.612562061546    0.000000000000
 N   -1.274993909816    3.951510050307    0.000000000000
 H   -0.773581223556    3.053490725093    0.000000000000
 H   -0.777016000654    4.826705059712    0.000000000000
 N   -3.335353141544    5.039167918184    0.000000000000
 H   -4.340506883184    4.952770839141    0.000000000000
 C   -2.729886024630    6.360635025318    0.000000000000
 H   -3.532350428895    7.106330393674    0.000000000000
 H   -2.114377109477    6.516494849363   -0.899745507916
 H   -2.114377109477    6.516494849363    0.899745507916
