28

 C    2.343667568290   -3.510403753136    0.000000000000
 N    2.937477568290   -2.319273753136    0.000000000000
 H    2.326927568290   -1.493873753136    0.000000000000
 H    3.940747568290   -2.226683753136    0.000000000000
 N    1.017367568290   -3.565633753136    0.000000000000
 H    0.515957568290   -2.667613753136    0.000000000000
 H    0.519387568290   -4.440833753136    0.000000000000
 N    3.077727568290   -4.653283753136    0.000000000000
 H    4.082877568290   -4.566893753136    0.000000000000
 C    2.472267568290   -5.974753753136    0.000000000000
 H    3.274727568290   -6.720453753136    0.000000000000
 H    1.856757568290   -6.130613753136    0.899750000000
 H    1.856757568290   -6.130613753136   -0.899750000000
CL    0.622357568290   -0.932183753136    1.756690000000
CL    0.622357568290   -0.932183753136   -1.756690000000
 C   -2.931291303717    4.390557992852    0.000000000000
 N   -3.525104718577    3.199429573271    0.000000000000
 H   -2.914549744961    2.374023947780    0.000000000000
 H   -4.528371256451    3.106839320643    0.000000000000
 N   -1.604990725004    4.445787309403    0.000000000000
 H   -1.103578038745    3.547767984189    0.000000000000
 H   -1.107012815843    5.320982318808    0.000000000000
 N   -3.665349956733    5.533445177281    0.000000000000
 H   -4.670503698373    5.447048098238    0.000000000000
 C   -3.059882839819    6.854912284414    0.000000000000
 H   -3.862347244083    7.600607652770    0.000000000000
 H   -2.444373924666    7.010772108460   -0.899745507916
 H   -2.444373924666    7.010772108460    0.899745507916
