28

 C    2.362527019117   -3.538651897462    0.000000000000
 N    2.956337019117   -2.347521897462    0.000000000000
 H    2.345787019117   -1.522121897462    0.000000000000
 H    3.959607019117   -2.254931897462    0.000000000000
 N    1.036227019117   -3.593881897462    0.000000000000
 H    0.534817019117   -2.695861897462    0.000000000000
 H    0.538247019117   -4.469081897462    0.000000000000
 N    3.096587019117   -4.681531897462    0.000000000000
 H    4.101737019117   -4.595141897462    0.000000000000
 C    2.491127019117   -6.003001897462    0.000000000000
 H    3.293587019117   -6.748701897462    0.000000000000
 H    1.875617019117   -6.158861897462    0.899750000000
 H    1.875617019117   -6.158861897462   -0.899750000000
CL    0.641217019117   -0.960431897462    1.756690000000
CL    0.641217019117   -0.960431897462   -1.756690000000
 C   -2.967957616516    4.445477688307    0.000000000000
 N   -3.561771031376    3.254349268726    0.000000000000
 H   -2.951216057760    2.428943643235    0.000000000000
 H   -4.565037569250    3.161759016098    0.000000000000
 N   -1.641657037803    4.500707004859    0.000000000000
 H   -1.140244351544    3.602687679644    0.000000000000
 H   -1.143679128642    5.375902014264    0.000000000000
 N   -3.702016269531    5.588364872736    0.000000000000
 H   -4.707170011171    5.501967793693    0.000000000000
 C   -3.096549152617    6.909831979869    0.000000000000
 H   -3.899013556882    7.655527348225    0.000000000000
 H   -2.481040237464    7.065691803915   -0.899745507916
 H   -2.481040237464    7.065691803915    0.899745507916
