28

 C    2.381386469943   -3.566900041788    0.000000000000
 N    2.975196469943   -2.375770041788    0.000000000000
 H    2.364646469943   -1.550370041788    0.000000000000
 H    3.978466469943   -2.283180041788    0.000000000000
 N    1.055086469943   -3.622130041788    0.000000000000
 H    0.553676469943   -2.724110041788    0.000000000000
 H    0.557106469943   -4.497330041788    0.000000000000
 N    3.115446469943   -4.709780041788    0.000000000000
 H    4.120596469943   -4.623390041788    0.000000000000
 C    2.509986469943   -6.031250041788    0.000000000000
 H    3.312446469943   -6.776950041788    0.000000000000
 H    1.894476469943   -6.187110041788    0.899750000000
 H    1.894476469943   -6.187110041788   -0.899750000000
CL    0.660076469943   -0.988680041788    1.756690000000
CL    0.660076469943   -0.988680041788   -1.756690000000
 C   -3.004623929314    4.500397383762    0.000000000000
 N   -3.598437344175    3.309268964182    0.000000000000
 H   -2.987882370559    2.483863338690    0.000000000000
 H   -4.601703882049    3.216678711553    0.000000000000
 N   -1.678323350602    4.555626700314    0.000000000000
 H   -1.176910664342    3.657607375100    0.000000000000
 H   -1.180345441441    5.430821709719    0.000000000000
 N   -3.738682582330    5.643284568191    0.000000000000
 H   -4.743836323970    5.556887489148    0.000000000000
 C   -3.133215465416    6.964751675325    0.000000000000
 H   -3.935679869681    7.710447043681    0.000000000000
 H   -2.517706550263    7.120611499370   -0.899745507916
 H   -2.517706550263    7.120611499370    0.899745507916
