28

 C    2.437964822422   -3.651644474766    0.000000000000
 N    3.031774822422   -2.460514474766    0.000000000000
 H    2.421224822422   -1.635114474766    0.000000000000
 H    4.035044822422   -2.367924474766    0.000000000000
 N    1.111664822422   -3.706874474766    0.000000000000
 H    0.610254822422   -2.808854474766    0.000000000000
 H    0.613684822422   -4.582074474766    0.000000000000
 N    3.172024822422   -4.794524474766    0.000000000000
 H    4.177174822422   -4.708134474766    0.000000000000
 C    2.566564822422   -6.115994474766    0.000000000000
 H    3.369024822422   -6.861694474766    0.000000000000
 H    1.951054822422   -6.271854474766    0.899750000000
 H    1.951054822422   -6.271854474766   -0.899750000000
CL    0.716654822422   -1.073424474766    1.756690000000
CL    0.716654822422   -1.073424474766   -1.756690000000
 C   -3.114622867710    4.665156470127    0.000000000000
 N   -3.708436282571    3.474028050547    0.000000000000
 H   -3.097881308955    2.648622425056    0.000000000000
 H   -4.711702820445    3.381437797919    0.000000000000
 N   -1.788322288998    4.720385786679    0.000000000000
 H   -1.286909602739    3.822366461465    0.000000000000
 H   -1.290344379837    5.595580796084    0.000000000000
 N   -3.848681520726    5.808043654557    0.000000000000
 H   -4.853835262366    5.721646575514    0.000000000000
 C   -3.243214403812    7.129510761690    0.000000000000
 H   -4.045678808077    7.875206130046    0.000000000000
 H   -2.627705488659    7.285370585736   -0.899745507916
 H   -2.627705488659    7.285370585736    0.899745507916
