28

 C    2.456824273249   -3.679892619092    0.000000000000
 N    3.050634273249   -2.488762619092    0.000000000000
 H    2.440084273249   -1.663362619092    0.000000000000
 H    4.053904273249   -2.396172619092    0.000000000000
 N    1.130524273249   -3.735122619092    0.000000000000
 H    0.629114273249   -2.837102619092    0.000000000000
 H    0.632544273249   -4.610322619092    0.000000000000
 N    3.190884273249   -4.822772619092    0.000000000000
 H    4.196034273249   -4.736382619092    0.000000000000
 C    2.585424273249   -6.144242619092    0.000000000000
 H    3.387884273249   -6.889942619092    0.000000000000
 H    1.969914273249   -6.300102619092    0.899750000000
 H    1.969914273249   -6.300102619092   -0.899750000000
CL    0.735514273249   -1.101672619092    1.756690000000
CL    0.735514273249   -1.101672619092   -1.756690000000
 C   -3.151289180509    4.720076165583    0.000000000000
 N   -3.745102595370    3.528947746002    0.000000000000
 H   -3.134547621753    2.703542120511    0.000000000000
 H   -4.748369133244    3.436357493374    0.000000000000
 N   -1.824988601797    4.775305482135    0.000000000000
 H   -1.323575915537    3.877286156920    0.000000000000
 H   -1.327010692635    5.650500491540    0.000000000000
 N   -3.885347833525    5.862963350012    0.000000000000
 H   -4.890501575165    5.776566270969    0.000000000000
 C   -3.279880716611    7.184430457145    0.000000000000
 H   -4.082345120876    7.930125825501    0.000000000000
 H   -2.664371801458    7.340290281191   -0.899745507916
 H   -2.664371801458    7.340290281191    0.899745507916
