28

 C    2.494543174901   -3.736388907743    0.000000000000
 N    3.088353174901   -2.545258907743    0.000000000000
 H    2.477803174901   -1.719858907743    0.000000000000
 H    4.091623174901   -2.452668907743    0.000000000000
 N    1.168243174901   -3.791618907743    0.000000000000
 H    0.666833174901   -2.893598907743    0.000000000000
 H    0.670263174901   -4.666818907743    0.000000000000
 N    3.228603174901   -4.879268907743    0.000000000000
 H    4.233753174901   -4.792878907743    0.000000000000
 C    2.623143174901   -6.200738907743    0.000000000000
 H    3.425603174901   -6.946438907743    0.000000000000
 H    2.007633174901   -6.356598907743    0.899750000000
 H    2.007633174901   -6.356598907743   -0.899750000000
CL    0.773233174901   -1.158168907743    1.756690000000
CL    0.773233174901   -1.158168907743   -1.756690000000
 C   -3.224621806107    4.829915556493    0.000000000000
 N   -3.818435220967    3.638787136913    0.000000000000
 H   -3.207880247351    2.813381511421    0.000000000000
 H   -4.821701758841    3.546196884284    0.000000000000
 N   -1.898321227394    4.885144873045    0.000000000000
 H   -1.396908541135    3.987125547831    0.000000000000
 H   -1.400343318233    5.760339882450    0.000000000000
 N   -3.958680459123    5.972802740922    0.000000000000
 H   -4.963834200763    5.886405661879    0.000000000000
 C   -3.353213342208    7.294269848056    0.000000000000
 H   -4.155677746473    8.039965216412    0.000000000000
 H   -2.737704427055    7.450129672101   -0.899745507916
 H   -2.737704427055    7.450129672101    0.899745507916
