28

 C    2.569980978207   -3.849381485047    0.000000000000
 N    3.163790978207   -2.658251485047    0.000000000000
 H    2.553240978207   -1.832851485047    0.000000000000
 H    4.167060978207   -2.565661485047    0.000000000000
 N    1.243680978207   -3.904611485047    0.000000000000
 H    0.742270978207   -3.006591485047    0.000000000000
 H    0.745700978207   -4.779811485047    0.000000000000
 N    3.304040978207   -4.992261485047    0.000000000000
 H    4.309190978207   -4.905871485047    0.000000000000
 C    2.698580978207   -6.313731485047    0.000000000000
 H    3.501040978207   -7.059431485047    0.000000000000
 H    2.083070978207   -6.469591485047    0.899750000000
 H    2.083070978207   -6.469591485047   -0.899750000000
CL    0.848670978207   -1.271161485047    1.756690000000
CL    0.848670978207   -1.271161485047   -1.756690000000
 C   -3.371287057302    5.049594338314    0.000000000000
 N   -3.965100472162    3.858465918733    0.000000000000
 H   -3.354545498546    3.033060293242    0.000000000000
 H   -4.968367010036    3.765875666105    0.000000000000
 N   -2.044986478589    5.104823654866    0.000000000000
 H   -1.543573792330    4.206804329651    0.000000000000
 H   -1.547008569428    5.980018664271    0.000000000000
 N   -4.105345710317    6.192481522743    0.000000000000
 H   -5.110499451957    6.106084443700    0.000000000000
 C   -3.499878593403    7.513948629876    0.000000000000
 H   -4.302342997668    8.259643998232    0.000000000000
 H   -2.884369678250    7.669808453922   -0.899745507916
 H   -2.884369678250    7.669808453922    0.899745507916
