28

 C    2.588840429033   -3.877629629373    0.000000000000
 N    3.182650429033   -2.686499629373    0.000000000000
 H    2.572100429033   -1.861099629373    0.000000000000
 H    4.185920429033   -2.593909629373    0.000000000000
 N    1.262540429033   -3.932859629373    0.000000000000
 H    0.761130429033   -3.034839629373    0.000000000000
 H    0.764560429033   -4.808059629373    0.000000000000
 N    3.322900429033   -5.020509629373    0.000000000000
 H    4.328050429033   -4.934119629373    0.000000000000
 C    2.717440429033   -6.341979629373    0.000000000000
 H    3.519900429033   -7.087679629373    0.000000000000
 H    2.101930429033   -6.497839629373    0.899750000000
 H    2.101930429033   -6.497839629373   -0.899750000000
CL    0.867530429033   -1.299409629373    1.756690000000
CL    0.867530429033   -1.299409629373   -1.756690000000
 C   -3.407953370100    5.104514033769    0.000000000000
 N   -4.001766784961    3.913385614189    0.000000000000
 H   -3.391211811345    3.087979988697    0.000000000000
 H   -5.005033322835    3.820795361560    0.000000000000
 N   -2.081652791388    5.159743350321    0.000000000000
 H   -1.580240105128    4.261724025106    0.000000000000
 H   -1.583674882227    6.034938359726    0.000000000000
 N   -4.142012023116    6.247401218198    0.000000000000
 H   -5.147165764756    6.161004139155    0.000000000000
 C   -3.536544906202    7.568868325331    0.000000000000
 H   -4.339009310467    8.314563693688    0.000000000000
 H   -2.921035991049    7.724728149377   -0.899745507916
 H   -2.921035991049    7.724728149377    0.899745507916
