28

 C    2.645418781513   -3.962374062351    0.000000000000
 N    3.239228781513   -2.771244062351    0.000000000000
 H    2.628678781513   -1.945844062351    0.000000000000
 H    4.242498781513   -2.678654062351    0.000000000000
 N    1.319118781513   -4.017604062351    0.000000000000
 H    0.817708781513   -3.119584062351    0.000000000000
 H    0.821138781513   -4.892804062351    0.000000000000
 N    3.379478781513   -5.105254062351    0.000000000000
 H    4.384628781513   -5.018864062351    0.000000000000
 C    2.774018781513   -6.426724062351    0.000000000000
 H    3.576478781513   -7.172424062351    0.000000000000
 H    2.158508781513   -6.582584062351    0.899750000000
 H    2.158508781513   -6.582584062351   -0.899750000000
CL    0.924108781513   -1.384154062351    1.756690000000
CL    0.924108781513   -1.384154062351   -1.756690000000
 C   -3.517952308496    5.269273120134    0.000000000000
 N   -4.111765723357    4.078144700554    0.000000000000
 H   -3.501210749741    3.252739075063    0.000000000000
 H   -5.115032261231    3.985554447926    0.000000000000
 N   -2.191651729784    5.324502436686    0.000000000000
 H   -1.690239043525    4.426483111472    0.000000000000
 H   -1.693673820623    6.199697446091    0.000000000000
 N   -4.252010961512    6.412160304564    0.000000000000
 H   -5.257164703152    6.325763225521    0.000000000000
 C   -3.646543844598    7.733627411697    0.000000000000
 H   -4.449008248863    8.479322780053    0.000000000000
 H   -3.031034929445    7.889487235743   -0.899745507916
 H   -3.031034929445    7.889487235743    0.899745507916
