28

 C    2.664278232339   -3.990622206676    0.000000000000
 N    3.258088232339   -2.799492206676    0.000000000000
 H    2.647538232339   -1.974092206676    0.000000000000
 H    4.261358232339   -2.706902206676    0.000000000000
 N    1.337978232339   -4.045852206676    0.000000000000
 H    0.836568232339   -3.147832206676    0.000000000000
 H    0.839998232339   -4.921052206676    0.000000000000
 N    3.398338232339   -5.133502206676    0.000000000000
 H    4.403488232339   -5.047112206676    0.000000000000
 C    2.792878232339   -6.454972206676    0.000000000000
 H    3.595338232339   -7.200672206676    0.000000000000
 H    2.177368232339   -6.610832206676    0.899750000000
 H    2.177368232339   -6.610832206676   -0.899750000000
CL    0.942968232339   -1.412402206676    1.756690000000
CL    0.942968232339   -1.412402206676   -1.756690000000
 C   -3.554618621295    5.324192815589    0.000000000000
 N   -4.148432036156    4.133064396009    0.000000000000
 H   -3.537877062539    3.307658770518    0.000000000000
 H   -5.151698574030    4.040474143381    0.000000000000
 N   -2.228318042583    5.379422132141    0.000000000000
 H   -1.726905356323    4.481402806927    0.000000000000
 H   -1.730340133421    6.254617141546    0.000000000000
 N   -4.288677274311    6.467080000019    0.000000000000
 H   -5.293831015951    6.380682920976    0.000000000000
 C   -3.683210157397    7.788547107152    0.000000000000
 H   -4.485674561662    8.534242475508    0.000000000000
 H   -3.067701242244    7.944406931198   -0.899745507916
 H   -3.067701242244    7.944406931198    0.899745507916
