28

 C    2.683137683165   -4.018870351002    0.000000000000
 N    3.276947683165   -2.827740351002    0.000000000000
 H    2.666397683165   -2.002340351002    0.000000000000
 H    4.280217683165   -2.735150351002    0.000000000000
 N    1.356837683165   -4.074100351002    0.000000000000
 H    0.855427683165   -3.176080351002    0.000000000000
 H    0.858857683165   -4.949300351002    0.000000000000
 N    3.417197683165   -5.161750351002    0.000000000000
 H    4.422347683165   -5.075360351002    0.000000000000
 C    2.811737683165   -6.483220351002    0.000000000000
 H    3.614197683165   -7.228920351002    0.000000000000
 H    2.196227683165   -6.639080351002    0.899750000000
 H    2.196227683165   -6.639080351002   -0.899750000000
CL    0.961827683165   -1.440650351002    1.756690000000
CL    0.961827683165   -1.440650351002   -1.756690000000
 C   -3.591284934094    5.379112511045    0.000000000000
 N   -4.185098348954    4.187984091464    0.000000000000
 H   -3.574543375338    3.362578465973    0.000000000000
 H   -5.188364886829    4.095393838836    0.000000000000
 N   -2.264984355381    5.434341827597    0.000000000000
 H   -1.763571669122    4.536322502382    0.000000000000
 H   -1.767006446220    6.309536837002    0.000000000000
 N   -4.325343587110    6.521999695474    0.000000000000
 H   -5.330497328750    6.435602616431    0.000000000000
 C   -3.719876470196    7.843466802607    0.000000000000
 H   -4.522340874461    8.589162170963    0.000000000000
 H   -3.104367555043    7.999326626653   -0.899745507916
 H   -3.104367555043    7.999326626653    0.899745507916
