28

 C    2.701997133992   -4.047118495328    0.000000000000
 N    3.295807133992   -2.855988495328    0.000000000000
 H    2.685257133992   -2.030588495328    0.000000000000
 H    4.299077133992   -2.763398495328    0.000000000000
 N    1.375697133992   -4.102348495328    0.000000000000
 H    0.874287133992   -3.204328495328    0.000000000000
 H    0.877717133992   -4.977548495328    0.000000000000
 N    3.436057133992   -5.189998495328    0.000000000000
 H    4.441207133992   -5.103608495328    0.000000000000
 C    2.830597133992   -6.511468495328    0.000000000000
 H    3.633057133992   -7.257168495328    0.000000000000
 H    2.215087133992   -6.667328495328    0.899750000000
 H    2.215087133992   -6.667328495328   -0.899750000000
CL    0.980687133992   -1.468898495328    1.756690000000
CL    0.980687133992   -1.468898495328   -1.756690000000
 C   -3.627951246893    5.434032206500    0.000000000000
 N   -4.221764661753    4.242903786920    0.000000000000
 H   -3.611209688137    3.417498161428    0.000000000000
 H   -5.225031199627    4.150313534291    0.000000000000
 N   -2.301650668180    5.489261523052    0.000000000000
 H   -1.800237981921    4.591242197838    0.000000000000
 H   -1.803672759019    6.364456532457    0.000000000000
 N   -4.362009899909    6.576919390929    0.000000000000
 H   -5.367163641549    6.490522311886    0.000000000000
 C   -3.756542782994    7.898386498062    0.000000000000
 H   -4.559007187259    8.644081866419    0.000000000000
 H   -3.141033867842    8.054246322108   -0.899745507916
 H   -3.141033867842    8.054246322108    0.899745507916
