28

 C    2.834013289776   -4.244855505609    0.000000000000
 N    3.427823289776   -3.053725505609    0.000000000000
 H    2.817273289776   -2.228325505609    0.000000000000
 H    4.431093289776   -2.961135505609    0.000000000000
 N    1.507713289776   -4.300085505609    0.000000000000
 H    1.006303289776   -3.402065505609    0.000000000000
 H    1.009733289776   -5.175285505609    0.000000000000
 N    3.568073289776   -5.387735505609    0.000000000000
 H    4.573223289776   -5.301345505609    0.000000000000
 C    2.962613289776   -6.709205505609    0.000000000000
 H    3.765073289776   -7.454905505609    0.000000000000
 H    2.347103289776   -6.865065505609    0.899750000000
 H    2.347103289776   -6.865065505609   -0.899750000000
CL    1.112703289776   -1.666635505609    1.756690000000
CL    1.112703289776   -1.666635505609   -1.756690000000
 C   -3.884615436484    5.818470074686    0.000000000000
 N   -4.478428851344    4.627341655106    0.000000000000
 H   -3.867873877728    3.801936029615    0.000000000000
 H   -5.481695389218    4.534751402477    0.000000000000
 N   -2.558314857771    5.873699391238    0.000000000000
 H   -2.056902171512    4.975680066024    0.000000000000
 H   -2.060336948610    6.748894400643    0.000000000000
 N   -4.618674089500    6.961357259115    0.000000000000
 H   -5.623827831140    6.874960180072    0.000000000000
 C   -4.013206972586    8.282824366249    0.000000000000
 H   -4.815671376850    9.028519734605    0.000000000000
 H   -3.397698057433    8.438684190294   -0.899745507916
 H   -3.397698057433    8.438684190294    0.899745507916
