28

 C    2.852872740603   -4.273103649935    0.000000000000
 N    3.446682740603   -3.081973649935    0.000000000000
 H    2.836132740603   -2.256573649935    0.000000000000
 H    4.449952740603   -2.989383649935    0.000000000000
 N    1.526572740603   -4.328333649935    0.000000000000
 H    1.025162740603   -3.430313649935    0.000000000000
 H    1.028592740603   -5.203533649935    0.000000000000
 N    3.586932740603   -5.415983649935    0.000000000000
 H    4.592082740603   -5.329593649935    0.000000000000
 C    2.981472740603   -6.737453649935    0.000000000000
 H    3.783932740603   -7.483153649935    0.000000000000
 H    2.365962740603   -6.893313649935    0.899750000000
 H    2.365962740603   -6.893313649935   -0.899750000000
CL    1.131562740603   -1.694883649935    1.756690000000
CL    1.131562740603   -1.694883649935   -1.756690000000
 C   -3.921281749283    5.873389770141    0.000000000000
 N   -4.515095164143    4.682261350561    0.000000000000
 H   -3.904540190527    3.856855725070    0.000000000000
 H   -5.518361702017    4.589671097933    0.000000000000
 N   -2.594981170570    5.928619086693    0.000000000000
 H   -2.093568484311    5.030599761479    0.000000000000
 H   -2.097003261409    6.803814096098    0.000000000000
 N   -4.655340402298    7.016276954570    0.000000000000
 H   -5.660494143938    6.929879875528    0.000000000000
 C   -4.049873285384    8.337744061704    0.000000000000
 H   -4.852337689649    9.083439430060    0.000000000000
 H   -3.434364370231    8.493603885750   -0.899745507916
 H   -3.434364370231    8.493603885750    0.899745507916
