28

 C    2.890591642255   -4.329599938587    0.000000000000
 N    3.484401642255   -3.138469938587    0.000000000000
 H    2.873851642255   -2.313069938587    0.000000000000
 H    4.487671642255   -3.045879938587    0.000000000000
 N    1.564291642255   -4.384829938587    0.000000000000
 H    1.062881642255   -3.486809938587    0.000000000000
 H    1.066311642255   -5.260029938587    0.000000000000
 N    3.624651642255   -5.472479938587    0.000000000000
 H    4.629801642255   -5.386089938587    0.000000000000
 C    3.019191642255   -6.793949938587    0.000000000000
 H    3.821651642255   -7.539649938587    0.000000000000
 H    2.403681642255   -6.949809938587    0.899750000000
 H    2.403681642255   -6.949809938587   -0.899750000000
CL    1.169281642255   -1.751379938587    1.756690000000
CL    1.169281642255   -1.751379938587   -1.756690000000
 C   -3.994614374880    5.983229161052    0.000000000000
 N   -4.588427789740    4.792100741471    0.000000000000
 H   -3.977872816124    3.966695115980    0.000000000000
 H   -5.591694327615    4.699510488843    0.000000000000
 N   -2.668313796167    6.038458477603    0.000000000000
 H   -2.166901109908    5.140439152389    0.000000000000
 H   -2.170335887006    6.913653487008    0.000000000000
 N   -4.728673027896    7.126116345481    0.000000000000
 H   -5.733826769536    7.039719266438    0.000000000000
 C   -4.123205910982    8.447583452614    0.000000000000
 H   -4.925670315247    9.193278820970    0.000000000000
 H   -3.507696995829    8.603443276660   -0.899745507916
 H   -3.507696995829    8.603443276660    0.899745507916
