28

 C    2.909451093082   -4.357848082913    0.000000000000
 N    3.503261093082   -3.166718082913    0.000000000000
 H    2.892711093082   -2.341318082913    0.000000000000
 H    4.506531093082   -3.074128082913    0.000000000000
 N    1.583151093082   -4.413078082913    0.000000000000
 H    1.081741093082   -3.515058082913    0.000000000000
 H    1.085171093082   -5.288278082913    0.000000000000
 N    3.643511093082   -5.500728082913    0.000000000000
 H    4.648661093082   -5.414338082913    0.000000000000
 C    3.038051093082   -6.822198082913    0.000000000000
 H    3.840511093082   -7.567898082913    0.000000000000
 H    2.422541093082   -6.978058082913    0.899750000000
 H    2.422541093082   -6.978058082913   -0.899750000000
CL    1.188141093082   -1.779628082913    1.756690000000
CL    1.188141093082   -1.779628082913   -1.756690000000
 C   -4.031280687679    6.038148856507    0.000000000000
 N   -4.625094102539    4.847020436926    0.000000000000
 H   -4.014539128923    4.021614811435    0.000000000000
 H   -5.628360640413    4.754430184298    0.000000000000
 N   -2.704980108966    6.093378173059    0.000000000000
 H   -2.203567422707    5.195358847844    0.000000000000
 H   -2.207002199805    6.968573182464    0.000000000000
 N   -4.765339340695    7.181036040936    0.000000000000
 H   -5.770493082335    7.094638961893    0.000000000000
 C   -4.159872223780    8.502503148069    0.000000000000
 H   -4.962336628045    9.248198516425    0.000000000000
 H   -3.544363308628    8.658362972115   -0.899745507916
 H   -3.544363308628    8.658362972115    0.899745507916
