28

 C    2.947169994735   -4.414344371565    0.000000000000
 N    3.540979994735   -3.223214371565    0.000000000000
 H    2.930429994735   -2.397814371565    0.000000000000
 H    4.544249994735   -3.130624371565    0.000000000000
 N    1.620869994735   -4.469574371565    0.000000000000
 H    1.119459994735   -3.571554371565    0.000000000000
 H    1.122889994735   -5.344774371565    0.000000000000
 N    3.681229994735   -5.557224371565    0.000000000000
 H    4.686379994735   -5.470834371565    0.000000000000
 C    3.075769994735   -6.878694371565    0.000000000000
 H    3.878229994735   -7.624394371565    0.000000000000
 H    2.460259994735   -7.034554371565    0.899750000000
 H    2.460259994735   -7.034554371565   -0.899750000000
CL    1.225859994735   -1.836124371565    1.756690000000
CL    1.225859994735   -1.836124371565   -1.756690000000
 C   -4.104613313276    6.147988247417    0.000000000000
 N   -4.698426728137    4.956859827837    0.000000000000
 H   -4.087871754520    4.131454202346    0.000000000000
 H   -5.701693266011    4.864269575208    0.000000000000
 N   -2.778312734564    6.203217563969    0.000000000000
 H   -2.276900048304    5.305198238755    0.000000000000
 H   -2.280334825402    7.078412573374    0.000000000000
 N   -4.838671966292    7.290875431846    0.000000000000
 H   -5.843825707932    7.204478352803    0.000000000000
 C   -4.233204849378    8.612342538980    0.000000000000
 H   -5.035669253643    9.358037907336    0.000000000000
 H   -3.617695934225    8.768202363025   -0.899745507916
 H   -3.617695934225    8.768202363025    0.899745507916
