28

 C    2.984888896387   -4.470840660217    0.000000000000
 N    3.578698896387   -3.279710660217    0.000000000000
 H    2.968148896387   -2.454310660217    0.000000000000
 H    4.581968896387   -3.187120660217    0.000000000000
 N    1.658588896387   -4.526070660216    0.000000000000
 H    1.157178896387   -3.628050660217    0.000000000000
 H    1.160608896387   -5.401270660216    0.000000000000
 N    3.718948896387   -5.613720660216    0.000000000000
 H    4.724098896387   -5.527330660217    0.000000000000
 C    3.113488896387   -6.935190660216    0.000000000000
 H    3.915948896387   -7.680890660216    0.000000000000
 H    2.497978896387   -7.091050660216    0.899750000000
 H    2.497978896387   -7.091050660216   -0.899750000000
CL    1.263578896387   -1.892620660217    1.756690000000
CL    1.263578896387   -1.892620660217   -1.756690000000
 C   -4.177945938874    6.257827638327    0.000000000000
 N   -4.771759353734    5.066699218747    0.000000000000
 H   -4.161204380118    4.241293593256    0.000000000000
 H   -5.775025891608    4.974108966119    0.000000000000
 N   -2.851645360161    6.313056954879    0.000000000000
 H   -2.350232673902    5.415037629665    0.000000000000
 H   -2.353667451000    7.188251964284    0.000000000000
 N   -4.912004591890    7.400714822757    0.000000000000
 H   -5.917158333530    7.314317743714    0.000000000000
 C   -4.306537474975    8.722181929890    0.000000000000
 H   -5.109001879240    9.467877298246    0.000000000000
 H   -3.691028559822    8.878041753936   -0.899745507916
 H   -3.691028559822    8.878041753936    0.899745507916
