15

 N   -2.082506021267    0.756573131846    0.000001858059
 H   -2.201296021267    1.379343131846    0.802481858059
 H   -2.201296021267    1.379343131846   -0.802478141941
 C   -3.204846021267   -0.214436868154    0.000001858059
 H   -3.125286021267   -0.851366868154   -0.891018141941
 H   -4.197096021267    0.258693131846    0.000001858059
 H   -3.125286021267   -0.851366868154    0.891021858059
 K    0.423303978733   -0.153786868154    0.000001858059
 N    1.551177992119   -0.563543149287    0.000001858059
 H    1.669975407931   -1.186316691032   -0.802479315427
 H    1.669980794590   -1.186301917070    0.802493699372
 C    2.673523833570    0.407468148341   -0.000010681463
 H    2.593965712582    1.044406851235    0.891007285045
 H    3.665766353702   -0.065659016533   -0.000009596181
 H    2.593959894849    1.044390562536   -0.891039772150
