15

 N   -2.111379801912    0.767062967448    0.000001858059
 H   -2.230169801912    1.389832967448    0.802481858059
 H   -2.230169801912    1.389832967448   -0.802478141941
 C   -3.233719801912   -0.203947032552    0.000001858059
 H   -3.154159801912   -0.840877032552   -0.891018141941
 H   -4.225969801912    0.269182967448    0.000001858059
 H   -3.154159801912   -0.840877032552    0.891021858059
 K    0.394430198088   -0.143297032552    0.000001858059
 N    1.616293712590   -0.587199670447    0.000001858059
 H    1.735091128401   -1.209973212192   -0.802479315427
 H    1.735096515061   -1.209958438230    0.802493699372
 C    2.738639554041    0.383811627181   -0.000010681463
 H    2.659081433053    1.020750330075    0.891007285045
 H    3.730882074173   -0.089315537693   -0.000009596181
 H    2.659075615320    1.020734041377   -0.891039772150
