15

 N   -2.169127363202    0.788042638650    0.000001858059
 H   -2.287917363202    1.410812638650    0.802481858059
 H   -2.287917363202    1.410812638650   -0.802478141941
 C   -3.291467363202   -0.182967361350    0.000001858059
 H   -3.211907363202   -0.819897361350   -0.891018141941
 H   -4.283717363202    0.290162638650    0.000001858059
 H   -3.211907363202   -0.819897361350    0.891021858059
 K    0.336682636798   -0.122317361350    0.000001858059
 N    1.746525153531   -0.634512712766    0.000001858059
 H    1.865322569342   -1.257286254511   -0.802479315427
 H    1.865327956002   -1.257271480549    0.802493699372
 C    2.868870994982    0.336498584861   -0.000010681463
 H    2.789312873994    0.973437287756    0.891007285045
 H    3.861113515114   -0.136628580012   -0.000009596181
 H    2.789307056261    0.973420999057   -0.891039772150
