15

 N   -2.198001143847    0.798532474251    0.000001858059
 H   -2.316791143847    1.421302474251    0.802481858059
 H   -2.316791143847    1.421302474251   -0.802478141941
 C   -3.320341143847   -0.172477525749    0.000001858059
 H   -3.240781143847   -0.809407525749   -0.891018141941
 H   -4.312591143847    0.300652474251    0.000001858059
 H   -3.240781143847   -0.809407525749    0.891021858059
 K    0.307808856153   -0.111827525749    0.000001858059
 N    1.811640874001   -0.658169233926    0.000001858059
 H    1.930438289813   -1.280942775671   -0.802479315427
 H    1.930443676472   -1.280928001709    0.802493699372
 C    2.933986715452    0.312842063701   -0.000010681463
 H    2.854428594464    0.949780766596    0.891007285045
 H    3.926229235584   -0.160285101172   -0.000009596181
 H    2.854422776731    0.949764477897   -0.891039772150
