15

 N   -2.428991389008    0.882451159062    0.000001858059
 H   -2.547781389008    1.505221159062    0.802481858059
 H   -2.547781389008    1.505221159062   -0.802478141941
 C   -3.551331389008   -0.088558840938    0.000001858059
 H   -3.471771389008   -0.725488840938   -0.891018141941
 H   -4.543581389008    0.384571159062    0.000001858059
 H   -3.471771389008   -0.725488840938    0.891021858059
 K    0.076818610992   -0.027908840938    0.000001858059
 N    2.332566637765   -0.847421403205    0.000001858059
 H    2.451364053576   -1.470194944950   -0.802479315427
 H    2.451369440236   -1.470180170988    0.802493699372
 C    3.454912479216    0.123589894423   -0.000010681463
 H    3.375354358228    0.760528597317    0.891007285045
 H    4.447154999348   -0.349537270451   -0.000009596181
 H    3.375348540495    0.760512308619   -0.891039772150
