15

 N   -2.544486511588    0.924410501467    0.000001858059
 H   -2.663276511588    1.547180501467    0.802481858059
 H   -2.663276511588    1.547180501467   -0.802478141941
 C   -3.666826511588   -0.046599498533    0.000001858059
 H   -3.587266511588   -0.683529498533   -0.891018141941
 H   -4.659076511588    0.426530501467    0.000001858059
 H   -3.587266511588   -0.683529498533    0.891021858059
 K   -0.038676511588    0.014050501467    0.000001858059
 N    2.593029519647   -0.942047487844    0.000001858059
 H    2.711826935458   -1.564821029589   -0.802479315427
 H    2.711832322117   -1.564806255627    0.802493699372
 C    3.715375361098    0.028963809784   -0.000010681463
 H    3.635817240110    0.665902512678    0.891007285045
 H    4.707617881230   -0.444163355090   -0.000009596181
 H    3.635811422376    0.665886223979   -0.891039772150
