15

 N   -2.602234072878    0.945390172669    0.000001858059
 H   -2.721024072878    1.568160172669    0.802481858059
 H   -2.721024072878    1.568160172669   -0.802478141941
 C   -3.724574072878   -0.025619827331    0.000001858059
 H   -3.645014072878   -0.662549827331   -0.891018141941
 H   -4.716824072878    0.447510172669    0.000001858059
 H   -3.645014072878   -0.662549827331    0.891021858059
 K   -0.096424072878    0.035030172669    0.000001858059
 N    2.723260960588   -0.989360530164    0.000001858059
 H    2.842058376399   -1.612134071909   -0.802479315427
 H    2.842063763058   -1.612119297947    0.802493699372
 C    3.845606802039   -0.018349232536   -0.000010681463
 H    3.766048681050    0.618589470358    0.891007285045
 H    4.837849322171   -0.491476397410   -0.000009596181
 H    3.766042863317    0.618573181660   -0.891039772150
