15

 N   -2.659981634168    0.966369843872    0.000001858059
 H   -2.778771634168    1.589139843872    0.802481858059
 H   -2.778771634168    1.589139843872   -0.802478141941
 C   -3.782321634168   -0.004640156128    0.000001858059
 H   -3.702761634168   -0.641570156128   -0.891018141941
 H   -4.774571634168    0.468489843872    0.000001858059
 H   -3.702761634168   -0.641570156128    0.891021858059
 K   -0.154171634168    0.056009843872    0.000001858059
 N    2.853492401529   -1.036673572483    0.000001858059
 H    2.972289817340   -1.659447114228   -0.802479315427
 H    2.972295203999   -1.659432340266    0.802493699372
 C    3.975838242980   -0.065662274856   -0.000010681463
 H    3.896280121991    0.571276428039    0.891007285045
 H    4.968080763111   -0.538789439729   -0.000009596181
 H    3.896274304258    0.571260139340   -0.891039772150
