15

 N   -2.833224318038    1.029308857479    0.000001858059
 H   -2.952014318038    1.652078857479    0.802481858059
 H   -2.952014318038    1.652078857479   -0.802478141941
 C   -3.955564318038    0.058298857479    0.000001858059
 H   -3.876004318038   -0.578631142521   -0.891018141941
 H   -4.947814318038    0.531428857479    0.000001858059
 H   -3.876004318038   -0.578631142521    0.891021858059
 K   -0.327414318038    0.118948857479    0.000001858059
 N    3.244186724351   -1.178612699442    0.000001858059
 H    3.362984140163   -1.801386241187   -0.802479315427
 H    3.362989526822   -1.801371467225    0.802493699372
 C    4.366532565802   -0.207601401815   -0.000010681463
 H    4.286974444814    0.429337301080    0.891007285045
 H    5.358775085934   -0.680728566688   -0.000009596181
 H    4.286968627081    0.429321012381   -0.891039772150
