15

 N   -3.266331027714    1.186656391499    0.000001858059
 H   -3.385121027714    1.809426391499    0.802481858059
 H   -3.385121027714    1.809426391499   -0.802478141941
 C   -4.388671027714    0.215646391499    0.000001858059
 H   -4.309111027714   -0.421283608501   -0.891018141941
 H   -5.380921027714    0.688776391499    0.000001858059
 H   -4.309111027714   -0.421283608501    0.891021858059
 K   -0.760521027714    0.276296391499    0.000001858059
 N    4.220922531408   -1.533460516839    0.000001858059
 H    4.339719947219   -2.156234058584   -0.802479315427
 H    4.339725333879   -2.156219284622    0.802493699372
 C    5.343268372859   -0.562449219212   -0.000010681463
 H    5.263710251871    0.074489483683    0.891007285045
 H    6.335510892991   -1.035576384085   -0.000009596181
 H    5.263704434138    0.074473194984   -0.891039772150
