15

 N   -3.295204808359    1.197146227100    0.000001858059
 H   -3.413994808359    1.819916227100    0.802481858059
 H   -3.413994808359    1.819916227100   -0.802478141941
 C   -4.417544808359    0.226136227100    0.000001858059
 H   -4.337984808359   -0.410793772900   -0.891018141941
 H   -5.409794808359    0.699266227100    0.000001858059
 H   -4.337984808359   -0.410793772900    0.891021858059
 K   -0.789394808359    0.286786227100    0.000001858059
 N    4.286038251879   -1.557117037999    0.000001858059
 H    4.404835667690   -2.179890579744   -0.802479315427
 H    4.404841054349   -2.179875805782    0.802493699372
 C    5.408384093330   -0.586105740372   -0.000010681463
 H    5.328825972341    0.050832962523    0.891007285045
 H    6.400626613462   -1.059232905245   -0.000009596181
 H    5.328820154608    0.050816673824   -0.891039772150
