15

 N   -3.324078589004    1.207636062701    0.000001858059
 H   -3.442868589004    1.830406062701    0.802481858059
 H   -3.442868589004    1.830406062701   -0.802478141941
 C   -4.446418589004    0.236626062701    0.000001858059
 H   -4.366858589004   -0.400303937299   -0.891018141941
 H   -5.438668589004    0.709756062701    0.000001858059
 H   -4.366858589004   -0.400303937299    0.891021858059
 K   -0.818268589004    0.297276062701    0.000001858059
 N    4.351153972349   -1.580773559159    0.000001858059
 H    4.469951388160   -2.203547100904   -0.802479315427
 H    4.469956774820   -2.203532326942    0.802493699372
 C    5.473499813800   -0.609762261532   -0.000010681463
 H    5.393941692812    0.027176441363    0.891007285045
 H    6.465742333932   -1.082889426405   -0.000009596181
 H    5.393935875079    0.027160152664   -0.891039772150
