15

 N   -3.410699930940    1.239105569505    0.000001858059
 H   -3.529489930940    1.861875569505    0.802481858059
 H   -3.529489930940    1.861875569505   -0.802478141941
 C   -4.533039930940    0.268095569505    0.000001858059
 H   -4.453479930940   -0.368834430495   -0.891018141941
 H   -5.525289930940    0.741225569505    0.000001858059
 H   -4.453479930940   -0.368834430495    0.891021858059
 K   -0.904889930940    0.328745569505    0.000001858059
 N    4.546501133760   -1.651743122639    0.000001858059
 H    4.665298549572   -2.274516664383   -0.802479315427
 H    4.665303936231   -2.274501890422    0.802493699372
 C    5.668846975211   -0.680731825011   -0.000010681463
 H    5.589288854223   -0.043793122117    0.891007285045
 H    6.661089495343   -1.153858989885   -0.000009596181
 H    5.589283036490   -0.043809410815   -0.891039772150
