15

 N   -3.526195053520    1.281064911910    0.000001858059
 H   -3.644985053520    1.903834911910    0.802481858059
 H   -3.644985053520    1.903834911910   -0.802478141941
 C   -4.648535053520    0.310054911910    0.000001858059
 H   -4.568975053520   -0.326875088090   -0.891018141941
 H   -5.640785053520    0.783184911910    0.000001858059
 H   -4.568975053520   -0.326875088090    0.891021858059
 K   -1.020385053520    0.370704911910    0.000001858059
 N    4.806964015642   -1.746369207278    0.000001858059
 H    4.925761431454   -2.369142749023   -0.802479315427
 H    4.925766818113   -2.369127975061    0.802493699372
 C    5.929309857093   -0.775357909650   -0.000010681463
 H    5.849751736105   -0.138419206756    0.891007285045
 H    6.921552377225   -1.248485074524   -0.000009596181
 H    5.849745918372   -0.138435495455   -0.891039772150
