15

 N   -3.699437737390    1.344003925518    0.000001858059
 H   -3.818227737390    1.966773925518    0.802481858059
 H   -3.818227737390    1.966773925518   -0.802478141941
 C   -4.821777737390    0.372993925518    0.000001858059
 H   -4.742217737390   -0.263936074482   -0.891018141941
 H   -5.814027737390    0.846123925518    0.000001858059
 H   -4.742217737390   -0.263936074482    0.891021858059
 K   -1.193627737390    0.433643925518    0.000001858059
 N    5.197658338465   -1.888308334237    0.000001858059
 H    5.316455754276   -2.511081875982   -0.802479315427
 H    5.316461140936   -2.511067102020    0.802493699372
 C    6.320004179916   -0.917297036609   -0.000010681463
 H    6.240446058928   -0.280358333715    0.891007285045
 H    7.312246700048   -1.390424201483   -0.000009596181
 H    6.240440241195   -0.280374622413   -0.891039772150
