15

 N   -3.757185298680    1.364983596720    0.000001858059
 H   -3.875975298680    1.987753596720    0.802481858059
 H   -3.875975298680    1.987753596720   -0.802478141941
 C   -4.879525298680    0.393973596720    0.000001858059
 H   -4.799965298680   -0.242956403280   -0.891018141941
 H   -5.871775298680    0.867103596720    0.000001858059
 H   -4.799965298680   -0.242956403280    0.891021858059
 K   -1.251375298680    0.454623596720    0.000001858059
 N    5.327889779406   -1.935621376556    0.000001858059
 H    5.446687195217   -2.558394918301   -0.802479315427
 H    5.446692581877   -2.558380144339    0.802493699372
 C    6.450235620857   -0.964610078929   -0.000010681463
 H    6.370677499869   -0.327671376034    0.891007285045
 H    7.442478140989   -1.437737243802   -0.000009596181
 H    6.370671682136   -0.327687664733   -0.891039772150
