15

 N   -3.786059079325    1.375473432322    0.000001858059
 H   -3.904849079325    1.998243432322    0.802481858059
 H   -3.904849079325    1.998243432322   -0.802478141941
 C   -4.908399079325    0.404463432322    0.000001858059
 H   -4.828839079325   -0.232466567678   -0.891018141941
 H   -5.900649079325    0.877593432322    0.000001858059
 H   -4.828839079325   -0.232466567678    0.891021858059
 K   -1.280249079325    0.465113432322    0.000001858059
 N    5.393005499876   -1.959277897716    0.000001858059
 H    5.511802915688   -2.582051439461   -0.802479315427
 H    5.511808302347   -2.582036665499    0.802493699372
 C    6.515351341327   -0.988266600089   -0.000010681463
 H    6.435793220339   -0.351327897194    0.891007285045
 H    7.507593861459   -1.461393764962   -0.000009596181
 H    6.435787402606   -0.351344185893   -0.891039772150
