15

 N   -3.814932859970    1.385963267923    0.000001858059
 H   -3.933722859970    2.008733267923    0.802481858059
 H   -3.933722859970    2.008733267923   -0.802478141941
 C   -4.937272859970    0.414953267923    0.000001858059
 H   -4.857712859970   -0.221976732077   -0.891018141941
 H   -5.929522859970    0.888083267923    0.000001858059
 H   -4.857712859970   -0.221976732077    0.891021858059
 K   -1.309122859970    0.475603267923    0.000001858059
 N    5.458121220347   -1.982934418876    0.000001858059
 H    5.576918636158   -2.605707960621   -0.802479315427
 H    5.576924022818   -2.605693186659    0.802493699372
 C    6.580467061798   -1.011923121248   -0.000010681463
 H    6.500908940810   -0.374984418354    0.891007285045
 H    7.572709581930   -1.485050286122   -0.000009596181
 H    6.500903123077   -0.375000707053   -0.891039772150
