15

 N   -3.843806640616    1.396453103524    0.000001858059
 H   -3.962596640616    2.019223103524    0.802481858059
 H   -3.962596640616    2.019223103524   -0.802478141941
 C   -4.966146640616    0.425443103524    0.000001858059
 H   -4.886586640616   -0.211486896476   -0.891018141941
 H   -5.958396640616    0.898573103524    0.000001858059
 H   -4.886586640616   -0.211486896476    0.891021858059
 K   -1.337996640616    0.486093103524    0.000001858059
 N    5.523236940817   -2.006590940036    0.000001858059
 H    5.642034356629   -2.629364481781   -0.802479315427
 H    5.642039743288   -2.629349707819    0.802493699372
 C    6.645582782268   -1.035579642408   -0.000010681463
 H    6.566024661280   -0.398640939514    0.891007285045
 H    7.637825302400   -1.508706807282   -0.000009596181
 H    6.566018843547   -0.398657228213   -0.891039772150
