15

 N   -4.045923105131    1.469881952733    0.000001858059
 H   -4.164713105131    2.092651952733    0.802481858059
 H   -4.164713105131    2.092651952733   -0.802478141941
 C   -5.168263105131    0.498871952733    0.000001858059
 H   -5.088703105131   -0.138058047267   -0.891018141941
 H   -6.160513105131    0.972001952733    0.000001858059
 H   -5.088703105131   -0.138058047267    0.891021858059
 K   -1.540113105131    0.559521952733    0.000001858059
 N    5.979046984110   -2.172186588155    0.000001858059
 H    6.097844399922   -2.794960129899   -0.802479315427
 H    6.097849786581   -2.794945355938    0.802493699372
 C    7.101392825562   -1.201175290527   -0.000010681463
 H    7.021834704573   -0.564236587633    0.891007285045
 H    8.093635345693   -1.674302455401   -0.000009596181
 H    7.021828886840   -0.564252876331   -0.891039772150
