15

 N   -4.190292008356    1.522331130740    0.000001858059
 H   -4.309082008356    2.145101130740    0.802481858059
 H   -4.309082008356    2.145101130740   -0.802478141941
 C   -5.312632008356    0.551321130740    0.000001858059
 H   -5.233072008356   -0.085608869260   -0.891018141941
 H   -6.304882008356    1.024451130740    0.000001858059
 H   -5.233072008356   -0.085608869260    0.891021858059
 K   -1.684482008356    0.611971130740    0.000001858059
 N    6.304625586463   -2.290469193954    0.000001858059
 H    6.423423002274   -2.913242735699   -0.802479315427
 H    6.423428388933   -2.913227961737    0.802493699372
 C    7.426971427914   -1.319457896326   -0.000010681463
 H    7.347413306926   -0.682519193432    0.891007285045
 H    8.419213948046   -1.792585061200   -0.000009596181
 H    7.347407489193   -0.682535482130   -0.891039772150
