15

 N   -4.276913350291    1.553800637543    0.000001858059
 H   -4.395703350291    2.176570637543    0.802481858059
 H   -4.395703350291    2.176570637543   -0.802478141941
 C   -5.399253350291    0.582790637543    0.000001858059
 H   -5.319693350291   -0.054139362457   -0.891018141941
 H   -6.391503350291    1.055920637543    0.000001858059
 H   -5.319693350291   -0.054139362457    0.891021858059
 K   -1.771103350291    0.643440637543    0.000001858059
 N    6.499972747874   -2.361438757433    0.000001858059
 H    6.618770163685   -2.984212299178   -0.802479315427
 H    6.618775550345   -2.984197525216    0.802493699372
 C    7.622318589325   -1.390427459806   -0.000010681463
 H    7.542760468337   -0.753488756911    0.891007285045
 H    8.614561109457   -1.863554624679   -0.000009596181
 H    7.542754650604   -0.753505045610   -0.891039772150
