15

 N   -4.334660911582    1.574780308746    0.000001858059
 H   -4.453450911582    2.197550308746    0.802481858059
 H   -4.453450911582    2.197550308746   -0.802478141941
 C   -5.457000911582    0.603770308746    0.000001858059
 H   -5.377440911582   -0.033159691254   -0.891018141941
 H   -6.449250911582    1.076900308746    0.000001858059
 H   -5.377440911582   -0.033159691254    0.891021858059
 K   -1.828850911582    0.664420308746    0.000001858059
 N    6.630204188815   -2.408751799753    0.000001858059
 H    6.749001604626   -3.031525341498   -0.802479315427
 H    6.749006991286   -3.031510567536    0.802493699372
 C    7.752550030266   -1.437740502125   -0.000010681463
 H    7.672991909278   -0.800801799231    0.891007285045
 H    8.744792550398   -1.910867666999   -0.000009596181
 H    7.672986091545   -0.800818087929   -0.891039772150
