15

 N   -4.392408472872    1.595759979949    0.000001858059
 H   -4.511198472872    2.218529979949    0.802481858059
 H   -4.511198472872    2.218529979949   -0.802478141941
 C   -5.514748472872    0.624749979949    0.000001858059
 H   -5.435188472872   -0.012180020051   -0.891018141941
 H   -6.506998472872    1.097879979949    0.000001858059
 H   -5.435188472872   -0.012180020051    0.891021858059
 K   -1.886598472872    0.685399979949    0.000001858059
 N    6.760435629756   -2.456064842072    0.000001858059
 H    6.879233045567   -3.078838383817   -0.802479315427
 H    6.879238432227   -3.078823609855    0.802493699372
 C    7.882781471207   -1.485053544445   -0.000010681463
 H    7.803223350219   -0.848114841550    0.891007285045
 H    8.875023991339   -1.958180709318   -0.000009596181
 H    7.803217532486   -0.848131130249   -0.891039772150
