15

 N   -4.421282253517    1.606249815550    0.000001858059
 H   -4.540072253517    2.229019815550    0.802481858059
 H   -4.540072253517    2.229019815550   -0.802478141941
 C   -5.543622253517    0.635239815550    0.000001858059
 H   -5.464062253517   -0.001690184450   -0.891018141941
 H   -6.535872253517    1.108369815550    0.000001858059
 H   -5.464062253517   -0.001690184450    0.891021858059
 K   -1.915472253517    0.695889815550    0.000001858059
 N    6.825551350226   -2.479721363232    0.000001858059
 H    6.944348766038   -3.102494904977   -0.802479315427
 H    6.944354152697   -3.102480131015    0.802493699372
 C    7.947897191677   -1.508710065605   -0.000010681463
 H    7.868339070689   -0.871771362710    0.891007285045
 H    8.940139711809   -1.981837230478   -0.000009596181
 H    7.868333252956   -0.871787651409   -0.891039772150
