15

 N   -4.450156034162    1.616739651151    0.000001858059
 H   -4.568946034162    2.239509651151    0.802481858059
 H   -4.568946034162    2.239509651151   -0.802478141941
 C   -5.572496034162    0.645729651151    0.000001858059
 H   -5.492936034162    0.008799651151   -0.891018141941
 H   -6.564746034162    1.118859651151    0.000001858059
 H   -5.492936034162    0.008799651151    0.891021858059
 K   -1.944346034162    0.706379651151    0.000001858059
 N    6.890667070697   -2.503377884392    0.000001858059
 H    7.009464486508   -3.126151426137   -0.802479315427
 H    7.009469873168   -3.126136652175    0.802493699372
 C    8.013012912148   -1.532366586764   -0.000010681463
 H    7.933454791160   -0.895427883870    0.891007285045
 H    9.005255432280   -2.005493751638   -0.000009596181
 H    7.933448973427   -0.895444172569   -0.891039772150
