15

 N   -4.479029814807    1.627229486752    0.000001858059
 H   -4.597819814807    2.249999486752    0.802481858059
 H   -4.597819814807    2.249999486752   -0.802478141941
 C   -5.601369814807    0.656219486752    0.000001858059
 H   -5.521809814807    0.019289486752   -0.891018141941
 H   -6.593619814807    1.129349486752    0.000001858059
 H   -5.521809814807    0.019289486752    0.891021858059
 K   -1.973219814807    0.716869486752    0.000001858059
 N    6.955782791167   -2.527034405552    0.000001858059
 H    7.074580206979   -3.149807947297   -0.802479315427
 H    7.074585593638   -3.149793173335    0.802493699372
 C    8.078128632618   -1.556023107924   -0.000010681463
 H    7.998570511630   -0.919084405030    0.891007285045
 H    9.070371152750   -2.029150272798   -0.000009596181
 H    7.998564693897   -0.919100693729   -0.891039772150
