15

 N   -4.507903595452    1.637719322354    0.000001858059
 H   -4.626693595452    2.260489322354    0.802481858059
 H   -4.626693595452    2.260489322354   -0.802478141941
 C   -5.630243595452    0.666709322354    0.000001858059
 H   -5.550683595452    0.029779322354   -0.891018141941
 H   -6.622493595452    1.139839322354    0.000001858059
 H   -5.550683595452    0.029779322354    0.891021858059
 K   -2.002093595452    0.727359322354    0.000001858059
 N    7.020898511638   -2.550690926712    0.000001858059
 H    7.139695927449   -3.173464468457   -0.802479315427
 H    7.139701314108   -3.173449694495    0.802493699372
 C    8.143244353089   -1.579679629084   -0.000010681463
 H    8.063686232101   -0.942740926190    0.891007285045
 H    9.135486873221   -2.052806793958   -0.000009596181
 H    8.063680414368   -0.942757214888   -0.891039772150
