14

 P    0.353275978454   -0.675093522730   -0.768701505978
 O   -0.233724021546    0.374906477270    0.186298494022
 O    0.087275978454   -0.627093522730   -2.280701505978
 O    2.016275978454   -0.849093522730   -0.481701505978
 O    0.038275978454   -2.233093522730   -0.176701505978
 C    2.753275978454    0.315906477270   -0.858701505978
 H    2.422275978454    1.198906477270   -0.282701505978
 H    2.638275978454    0.526906477270   -1.936701505978
 H    3.813275978454    0.113906477270   -0.638701505978
 C   -1.352724021546   -2.556093522730   -0.226701505978
 H   -1.730724021546   -2.529093522730   -1.264701505978
 H   -1.945724021546   -1.857093522730    0.389298494022
 H   -1.462724021546   -3.576093522730    0.173298494022
RB   -0.730555186869    1.263616398206    0.994601326873
