14

 P    0.368735493800   -0.702746829566   -0.793852846957
 O   -0.218264506200    0.347253170434    0.161147153043
 O    0.102735493800   -0.654746829566   -2.305852846957
 O    2.031735493800   -0.876746829566   -0.506852846957
 O    0.053735493800   -2.260746829566   -0.201852846957
 C    2.768735493800    0.288253170434   -0.883852846957
 H    2.437735493800    1.171253170434   -0.307852846957
 H    2.653735493800    0.499253170434   -1.961852846957
 H    3.828735493800    0.086253170434   -0.663852846957
 C   -1.337264506200   -2.583746829566   -0.251852846957
 H   -1.715264506200   -2.556746829566   -1.289852846957
 H   -1.930264506200   -1.884746829566    0.364147153043
 H   -1.447264506200   -3.603746829566    0.148147153043
RB   -0.753313453471    1.304325392980    1.031627126882
