14

 P    0.430573555181   -0.813360056909   -0.894458210874
 O   -0.156426444819    0.236639943091    0.060541789126
 O    0.164573555181   -0.765360056909   -2.406458210874
 O    2.093573555181   -0.987360056909   -0.607458210874
 O    0.115573555181   -2.371360056909   -0.302458210874
 C    2.830573555181    0.177639943091   -0.984458210874
 H    2.499573555181    1.060639943091   -0.408458210874
 H    2.715573555181    0.388639943091   -2.062458210874
 H    3.890573555181   -0.024360056909   -0.764458210874
 C   -1.275426444819   -2.694360056909   -0.352458210874
 H   -1.653426444819   -2.667360056909   -1.390458210874
 H   -1.868426444819   -1.995360056909    0.263541789126
 H   -1.385426444819   -3.714360056909    0.047541789126
RB   -0.844346519882    1.467161372078    1.179730326919
