14

 P    0.492411616563   -0.923973284253   -0.995063574792
 O   -0.094588383437    0.126026715747   -0.040063574792
 O    0.226411616563   -0.875973284253   -2.507063574792
 O    2.155411616563   -1.097973284253   -0.708063574792
 O    0.177411616563   -2.481973284253   -0.403063574792
 C    2.892411616563    0.067026715747   -1.085063574792
 H    2.561411616563    0.950026715747   -0.509063574792
 H    2.777411616563    0.278026715747   -2.163063574792
 H    3.952411616563   -0.134973284253   -0.865063574792
 C   -1.213588383437   -2.804973284253   -0.453063574792
 H   -1.591588383437   -2.777973284253   -1.491063574792
 H   -1.806588383437   -2.105973284253    0.162936425208
 H   -1.323588383437   -3.824973284253   -0.053063574792
RB   -0.935379586292    1.629997351177    1.327833526956
