14

 P    0.507871131908   -0.951626591089   -1.020214915771
 O   -0.079128868092    0.098373408911   -0.065214915771
 O    0.241871131908   -0.903626591089   -2.532214915771
 O    2.170871131908   -1.125626591089   -0.733214915771
 O    0.192871131908   -2.509626591089   -0.428214915771
 C    2.907871131908    0.039373408911   -1.110214915771
 H    2.576871131908    0.922373408911   -0.534214915771
 H    2.792871131908    0.250373408911   -2.188214915771
 H    3.967871131908   -0.162626591089   -0.890214915771
 C   -1.198128868092   -2.832626591089   -0.478214915771
 H   -1.576128868092   -2.805626591089   -1.516214915771
 H   -1.791128868092   -2.133626591089    0.137785084229
 H   -1.308128868092   -3.852626591089   -0.078214915771
RB   -0.958137852894    1.670706345951    1.364859326965
