14

 P    0.538790162599   -1.006933204760   -1.070517597729
 O   -0.048209837401    0.043066795240   -0.115517597729
 O    0.272790162599   -0.958933204760   -2.582517597729
 O    2.201790162599   -1.180933204760   -0.783517597729
 O    0.223790162599   -2.564933204760   -0.478517597729
 C    2.938790162599   -0.015933204760   -1.160517597729
 H    2.607790162599    0.867066795240   -0.584517597729
 H    2.823790162599    0.195066795240   -2.238517597729
 H    3.998790162599   -0.217933204760   -0.940517597729
 C   -1.167209837401   -2.887933204760   -0.528517597729
 H   -1.545209837401   -2.860933204760   -1.566517597729
 H   -1.760209837401   -2.188933204760    0.087482402271
 H   -1.277209837401   -3.907933204760   -0.128517597729
RB   -1.003654386099    1.752124335500    1.438910926984
