14

 P    0.569709193290   -1.062239818432   -1.120820279688
 O   -0.017290806710   -0.012239818432   -0.165820279688
 O    0.303709193290   -1.014239818432   -2.632820279688
 O    2.232709193290   -1.236239818432   -0.833820279688
 O    0.254709193290   -2.620239818432   -0.528820279688
 C    2.969709193290   -0.071239818432   -1.210820279688
 H    2.638709193290    0.811760181568   -0.634820279688
 H    2.854709193290    0.139760181568   -2.288820279688
 H    4.029709193290   -0.273239818432   -0.990820279688
 C   -1.136290806710   -2.943239818432   -0.578820279688
 H   -1.514290806710   -2.916239818432   -1.616820279688
 H   -1.729290806710   -2.244239818432    0.037179720312
 H   -1.246290806710   -3.963239818432   -0.178820279688
RB   -1.049170919304    1.833542325049    1.512962527002
