14

 P    0.616087739326   -1.145199738940   -1.196274302626
 O    0.029087739326   -0.095199738940   -0.241274302626
 O    0.350087739326   -1.097199738940   -2.708274302626
 O    2.279087739326   -1.319199738940   -0.909274302626
 O    0.301087739326   -2.703199738940   -0.604274302626
 C    3.016087739326   -0.154199738940   -1.286274302626
 H    2.685087739326    0.728800261060   -0.710274302626
 H    2.901087739326    0.056800261060   -2.364274302626
 H    4.076087739326   -0.356199738940   -1.066274302626
 C   -1.089912260674   -3.026199738940   -0.654274302626
 H   -1.467912260674   -2.999199738940   -1.692274302626
 H   -1.682912260674   -2.327199738940   -0.038274302626
 H   -1.199912260674   -4.046199738940   -0.254274302626
RB   -1.117445719112    1.955669309373    1.624039927030
