14

 P    0.662466285362   -1.228159659447   -1.271728325564
 O    0.075466285362   -0.178159659447   -0.316728325564
 O    0.396466285362   -1.180159659447   -2.783728325564
 O    2.325466285362   -1.402159659447   -0.984728325564
 O    0.347466285362   -2.786159659447   -0.679728325564
 C    3.062466285362   -0.237159659447   -1.361728325564
 H    2.731466285362    0.645840340553   -0.785728325564
 H    2.947466285362   -0.026159659447   -2.439728325564
 H    4.122466285362   -0.439159659447   -1.141728325564
 C   -1.043533714638   -3.109159659447   -0.729728325564
 H   -1.421533714638   -3.082159659447   -1.767728325564
 H   -1.636533714638   -2.410159659447   -0.113728325564
 H   -1.153533714638   -4.129159659447   -0.329728325564
RB   -1.185720518920    2.077796293697    1.735117327058
