14

 P    0.739763862089   -1.366426193627   -1.397485030460
 O    0.152763862089   -0.316426193627   -0.442485030460
 O    0.473763862089   -1.318426193627   -2.909485030460
 O    2.402763862089   -1.540426193627   -1.110485030460
 O    0.424763862089   -2.924426193627   -0.805485030460
 C    3.139763862089   -0.375426193627   -1.487485030460
 H    2.808763862089    0.507573806373   -0.911485030460
 H    3.024763862089   -0.164426193627   -2.565485030460
 H    4.199763862089   -0.577426193627   -1.267485030460
 C   -0.966236137911   -3.247426193627   -0.855485030460
 H   -1.344236137911   -3.220426193627   -1.893485030460
 H   -1.559236137911   -2.548426193627   -0.239485030460
 H   -1.076236137911   -4.267426193627   -0.455485030460
RB   -1.299511851932    2.281341267569    1.920246327104
