14

 P    0.770682892780   -1.421732807298   -1.447787712419
 O    0.183682892780   -0.371732807298   -0.492787712419
 O    0.504682892780   -1.373732807298   -2.959787712419
 O    2.433682892780   -1.595732807298   -1.160787712419
 O    0.455682892780   -2.979732807298   -0.855787712419
 C    3.170682892780   -0.430732807298   -1.537787712419
 H    2.839682892780    0.452267192702   -0.961787712419
 H    3.055682892780   -0.219732807298   -2.615787712419
 H    4.230682892780   -0.632732807298   -1.317787712419
 C   -0.935317107220   -3.302732807298   -0.905787712419
 H   -1.313317107220   -3.275732807298   -1.943787712419
 H   -1.528317107220   -2.603732807298   -0.289787712419
 H   -1.045317107220   -4.322732807298   -0.505787712419
RB   -1.345028385137    2.362759257118    1.994297927122
