14

 P    0.847980469507   -1.559999341478   -1.573544417315
 O    0.260980469507   -0.509999341478   -0.618544417315
 O    0.581980469507   -1.511999341478   -3.085544417315
 O    2.510980469507   -1.733999341478   -1.286544417315
 O    0.532980469507   -3.117999341478   -0.981544417315
 C    3.247980469507   -0.568999341478   -1.663544417315
 H    2.916980469507    0.314000658522   -1.087544417315
 H    3.132980469507   -0.357999341478   -2.741544417315
 H    4.307980469507   -0.770999341478   -1.443544417315
 C   -0.858019530493   -3.440999341478   -1.031544417315
 H   -1.236019530493   -3.413999341478   -2.069544417315
 H   -1.451019530493   -2.741999341478   -0.415544417315
 H   -0.968019530493   -4.460999341478   -0.631544417315
RB   -1.458819718150    2.566304230991    2.179426927168
