14

 P    0.863439984852   -1.587652648314   -1.598695758295
 O    0.276439984852   -0.537652648314   -0.643695758295
 O    0.597439984852   -1.539652648314   -3.110695758295
 O    2.526439984852   -1.761652648314   -1.311695758295
 O    0.548439984852   -3.145652648314   -1.006695758295
 C    3.263439984852   -0.596652648314   -1.688695758295
 H    2.932439984852    0.286347351686   -1.112695758295
 H    3.148439984852   -0.385652648314   -2.766695758295
 H    4.323439984852   -0.798652648314   -1.468695758295
 C   -0.842560015148   -3.468652648314   -1.056695758295
 H   -1.220560015148   -3.441652648314   -2.094695758295
 H   -1.435560015148   -2.769652648314   -0.440695758295
 H   -0.952560015148   -4.488652648314   -0.656695758295
RB   -1.481577984752    2.607013225766    2.216452727178
