14

 P    0.878899500197   -1.615305955150   -1.623847099274
 O    0.291899500197   -0.565305955150   -0.668847099274
 O    0.612899500197   -1.567305955150   -3.135847099274
 O    2.541899500197   -1.789305955150   -1.336847099274
 O    0.563899500197   -3.173305955150   -1.031847099274
 C    3.278899500197   -0.624305955150   -1.713847099274
 H    2.947899500197    0.258694044850   -1.137847099274
 H    3.163899500197   -0.413305955150   -2.791847099274
 H    4.338899500197   -0.826305955150   -1.493847099274
 C   -0.827100499803   -3.496305955150   -1.081847099274
 H   -1.205100499803   -3.469305955150   -2.119847099274
 H   -1.420100499803   -2.797305955150   -0.465847099274
 H   -0.937100499803   -4.516305955150   -0.681847099274
RB   -1.504336251355    2.647722220540    2.253478527187
