14

 P    0.925278046233   -1.698265875657   -1.699301122212
 O    0.338278046233   -0.648265875657   -0.744301122212
 O    0.659278046233   -1.650265875657   -3.211301122212
 O    2.588278046233   -1.872265875657   -1.412301122212
 O    0.610278046233   -3.256265875657   -1.107301122212
 C    3.325278046233   -0.707265875657   -1.789301122212
 H    2.994278046233    0.175734124343   -1.213301122212
 H    3.210278046233   -0.496265875657   -2.867301122212
 H    4.385278046233   -0.909265875657   -1.569301122212
 C   -0.780721953767   -3.579265875657   -1.157301122212
 H   -1.158721953767   -3.552265875657   -2.195301122212
 H   -1.373721953767   -2.880265875657   -0.541301122212
 H   -0.890721953767   -4.599265875657   -0.757301122212
RB   -1.572611051163    2.769849204864    2.364555927215
