14

 P    0.940737561579   -1.725919182493   -1.724452463191
 O    0.353737561579   -0.675919182493   -0.769452463191
 O    0.674737561579   -1.677919182493   -3.236452463191
 O    2.603737561579   -1.899919182493   -1.437452463191
 O    0.625737561579   -3.283919182493   -1.132452463191
 C    3.340737561579   -0.734919182493   -1.814452463191
 H    3.009737561579    0.148080817507   -1.238452463191
 H    3.225737561579   -0.523919182493   -2.892452463191
 H    4.400737561579   -0.936919182493   -1.594452463191
 C   -0.765262438421   -3.606919182493   -1.182452463191
 H   -1.143262438421   -3.579919182493   -2.220452463191
 H   -1.358262438421   -2.907919182493   -0.566452463191
 H   -0.875262438421   -4.626919182493   -0.782452463191
RB   -1.595369317765    2.810558199638    2.401581727224
