14

 P    1.002575622960   -1.836532409837   -1.825057827108
 O    0.415575622960   -0.786532409837   -0.870057827108
 O    0.736575622960   -1.788532409837   -3.337057827108
 O    2.665575622960   -2.010532409837   -1.538057827108
 O    0.687575622960   -3.394532409837   -1.233057827108
 C    3.402575622960   -0.845532409837   -1.915057827108
 H    3.071575622960    0.037467590163   -1.339057827108
 H    3.287575622960   -0.634532409837   -2.993057827108
 H    4.462575622960   -1.047532409837   -1.695057827108
 C   -0.703424377040   -3.717532409837   -1.283057827108
 H   -1.081424377040   -3.690532409837   -2.321057827108
 H   -1.296424377040   -3.018532409837   -0.667057827108
 H   -0.813424377040   -4.737532409837   -0.883057827108
RB   -1.686402384175    2.973394178737    2.549684927261
