14

 P    1.018035138306   -1.864185716672   -1.850209168088
 O    0.431035138306   -0.814185716672   -0.895209168088
 O    0.752035138306   -1.816185716672   -3.362209168088
 O    2.681035138306   -2.038185716672   -1.563209168088
 O    0.703035138306   -3.422185716672   -1.258209168088
 C    3.418035138306   -0.873185716672   -1.940209168088
 H    3.087035138306    0.009814283328   -1.364209168088
 H    3.303035138306   -0.662185716672   -3.018209168088
 H    4.478035138306   -1.075185716672   -1.720209168088
 C   -0.687964861694   -3.745185716672   -1.308209168088
 H   -1.065964861694   -3.718185716672   -2.346209168088
 H   -1.280964861694   -3.046185716672   -0.692209168088
 H   -0.797964861694   -4.765185716672   -0.908209168088
RB   -1.709160650778    3.014103173511    2.586710727270
