14

 P    1.033494653651   -1.891839023508   -1.875360509067
 O    0.446494653651   -0.841839023508   -0.920360509067
 O    0.767494653651   -1.843839023508   -3.387360509067
 O    2.696494653651   -2.065839023508   -1.588360509067
 O    0.718494653651   -3.449839023508   -1.283360509067
 C    3.433494653651   -0.900839023508   -1.965360509067
 H    3.102494653651   -0.017839023508   -1.389360509067
 H    3.318494653651   -0.689839023508   -3.043360509067
 H    4.493494653651   -1.102839023508   -1.745360509067
 C   -0.672505346349   -3.772839023508   -1.333360509067
 H   -1.050505346349   -3.745839023508   -2.371360509067
 H   -1.265505346349   -3.073839023508   -0.717360509067
 H   -0.782505346349   -4.792839023508   -0.933360509067
RB   -1.731918917380    3.054812168286    2.623736527279
