14

 P    1.048954168997   -1.919492330344   -1.900511850046
 O    0.461954168997   -0.869492330344   -0.945511850046
 O    0.782954168997   -1.871492330344   -3.412511850046
 O    2.711954168997   -2.093492330344   -1.613511850046
 O    0.733954168997   -3.477492330344   -1.308511850046
 C    3.448954168997   -0.928492330344   -1.990511850046
 H    3.117954168997   -0.045492330344   -1.414511850046
 H    3.333954168997   -0.717492330344   -3.068511850046
 H    4.508954168997   -1.130492330344   -1.770511850046
 C   -0.657045831003   -3.800492330344   -1.358511850046
 H   -1.035045831003   -3.773492330344   -2.396511850046
 H   -1.250045831003   -3.101492330344   -0.742511850046
 H   -0.767045831003   -4.820492330344   -0.958511850046
RB   -1.754677183983    3.095521163060    2.660762327288
