14

 P    1.064413684342   -1.947145637180   -1.925663191025
 O    0.477413684342   -0.897145637180   -0.970663191025
 O    0.798413684342   -1.899145637180   -3.437663191025
 O    2.727413684342   -2.121145637180   -1.638663191025
 O    0.749413684342   -3.505145637180   -1.333663191025
 C    3.464413684342   -0.956145637180   -2.015663191025
 H    3.133413684342   -0.073145637180   -1.439663191025
 H    3.349413684342   -0.745145637180   -3.093663191025
 H    4.524413684342   -1.158145637180   -1.795663191025
 C   -0.641586315658   -3.828145637180   -1.383663191025
 H   -1.019586315658   -3.801145637180   -2.421663191025
 H   -1.234586315658   -3.129145637180   -0.767663191025
 H   -0.751586315658   -4.848145637180   -0.983663191025
RB   -1.777435450585    3.136230157835    2.697788127298
