14

 P    1.095332715033   -2.002452250852   -1.975965872984
 O    0.508332715033   -0.952452250852   -1.020965872984
 O    0.829332715033   -1.954452250852   -3.487965872984
 O    2.758332715033   -2.176452250852   -1.688965872984
 O    0.780332715033   -3.560452250852   -1.383965872984
 C    3.495332715033   -1.011452250852   -2.065965872984
 H    3.164332715033   -0.128452250852   -1.489965872984
 H    3.380332715033   -0.800452250852   -3.143965872984
 H    4.555332715033   -1.213452250852   -1.845965872984
 C   -0.610667284967   -3.883452250852   -1.433965872984
 H   -0.988667284967   -3.856452250852   -2.471965872984
 H   -1.203667284967   -3.184452250852   -0.817965872984
 H   -0.720667284967   -4.903452250852   -1.033965872984
RB   -1.822951983790    3.217648147384    2.771839727316
