14

 P    1.172630291760   -2.140718785031   -2.101722577880
 O    0.585630291760   -1.090718785031   -1.146722577880
 O    0.906630291760   -2.092718785031   -3.613722577880
 O    2.835630291760   -2.314718785031   -1.814722577880
 O    0.857630291760   -3.698718785031   -1.509722577880
 C    3.572630291760   -1.149718785031   -2.191722577880
 H    3.241630291760   -0.266718785031   -1.615722577880
 H    3.457630291760   -0.938718785031   -3.269722577880
 H    4.632630291760   -1.351718785031   -1.971722577880
 C   -0.533369708240   -4.021718785031   -1.559722577880
 H   -0.911369708240   -3.994718785031   -2.597722577880
 H   -1.126369708240   -3.322718785031   -0.943722577880
 H   -0.643369708240   -5.041718785031   -1.159722577880
RB   -1.936743316803    3.421193121257    2.956968727362
