14

 P    1.188089807105   -2.168372091867   -2.126873918860
 O    0.601089807105   -1.118372091867   -1.171873918860
 O    0.922089807105   -2.120372091867   -3.638873918860
 O    2.851089807105   -2.342372091867   -1.839873918860
 O    0.873089807105   -3.726372091867   -1.534873918860
 C    3.588089807105   -1.177372091867   -2.216873918860
 H    3.257089807105   -0.294372091867   -1.640873918860
 H    3.473089807105   -0.966372091867   -3.294873918860
 H    4.648089807105   -1.379372091867   -1.996873918860
 C   -0.517910192895   -4.049372091867   -1.584873918860
 H   -0.895910192895   -4.022372091867   -2.622873918860
 H   -1.110910192895   -3.350372091867   -0.968873918860
 H   -0.627910192895   -5.069372091867   -1.184873918860
RB   -1.959501583406    3.461902116031    2.993994527371
