14

 P    1.219008837796   -2.223678705539   -2.177176600818
 O    0.632008837796   -1.173678705539   -1.222176600818
 O    0.953008837796   -2.175678705539   -3.689176600818
 O    2.882008837796   -2.397678705539   -1.890176600818
 O    0.904008837796   -3.781678705539   -1.585176600818
 C    3.619008837796   -1.232678705539   -2.267176600818
 H    3.288008837796   -0.349678705539   -1.691176600818
 H    3.504008837796   -1.021678705539   -3.345176600818
 H    4.679008837796   -1.434678705539   -2.047176600818
 C   -0.486991162204   -4.104678705539   -1.635176600818
 H   -0.864991162204   -4.077678705539   -2.673176600818
 H   -1.079991162204   -3.405678705539   -1.019176600818
 H   -0.596991162204   -5.124678705539   -1.235176600818
RB   -2.005018116611    3.543320105580    3.068046127390
