14

 P    1.234468353141   -2.251332012375   -2.202327941798
 O    0.647468353141   -1.201332012375   -1.247327941798
 O    0.968468353141   -2.203332012375   -3.714327941798
 O    2.897468353141   -2.425332012375   -1.915327941798
 O    0.919468353141   -3.809332012375   -1.610327941798
 C    3.634468353141   -1.260332012375   -2.292327941798
 H    3.303468353141   -0.377332012375   -1.716327941798
 H    3.519468353141   -1.049332012375   -3.370327941798
 H    4.694468353141   -1.462332012375   -2.072327941798
 C   -0.471531646859   -4.132332012375   -1.660327941798
 H   -0.849531646859   -4.105332012375   -2.698327941798
 H   -1.064531646859   -3.433332012375   -1.044327941798
 H   -0.581531646859   -5.152332012375   -1.260327941798
RB   -2.027776383213    3.584029100355    3.105071927399
