14

 P    1.249927868487   -2.278985319211   -2.227479282777
 O    0.662927868487   -1.228985319211   -1.272479282777
 O    0.983927868487   -2.230985319211   -3.739479282777
 O    2.912927868487   -2.452985319211   -1.940479282777
 O    0.934927868487   -3.836985319211   -1.635479282777
 C    3.649927868487   -1.287985319211   -2.317479282777
 H    3.318927868487   -0.404985319211   -1.741479282777
 H    3.534927868487   -1.076985319211   -3.395479282777
 H    4.709927868487   -1.489985319211   -2.097479282777
 C   -0.456072131513   -4.159985319211   -1.685479282777
 H   -0.834072131513   -4.132985319211   -2.723479282777
 H   -1.049072131513   -3.460985319211   -1.069479282777
 H   -0.566072131513   -5.179985319211   -1.285479282777
RB   -2.050534649816    3.624738095129    3.142097727408
