14

 P    1.280846899177   -2.334291932882   -2.277781964736
 O    0.693846899177   -1.284291932882   -1.322781964736
 O    1.014846899177   -2.286291932882   -3.789781964736
 O    2.943846899177   -2.508291932882   -1.990781964736
 O    0.965846899177   -3.892291932882   -1.685781964736
 C    3.680846899177   -1.343291932882   -2.367781964736
 H    3.349846899177   -0.460291932882   -1.791781964736
 H    3.565846899177   -1.132291932882   -3.445781964736
 H    4.740846899177   -1.545291932882   -2.147781964736
 C   -0.425153100823   -4.215291932882   -1.735781964736
 H   -0.803153100823   -4.188291932882   -2.773781964736
 H   -1.018153100823   -3.516291932882   -1.119781964736
 H   -0.535153100823   -5.235291932882   -1.335781964736
RB   -2.096051183021    3.706156084678    3.216149327427
