14

 P    1.311765929868   -2.389598546554   -2.328084646694
 O    0.724765929868   -1.339598546554   -1.373084646694
 O    1.045765929868   -2.341598546554   -3.840084646694
 O    2.974765929868   -2.563598546554   -2.041084646694
 O    0.996765929868   -3.947598546554   -1.736084646694
 C    3.711765929868   -1.398598546554   -2.418084646694
 H    3.380765929868   -0.515598546554   -1.842084646694
 H    3.596765929868   -1.187598546554   -3.496084646694
 H    4.771765929868   -1.600598546554   -2.198084646694
 C   -0.394234070132   -4.270598546554   -1.786084646694
 H   -0.772234070132   -4.243598546554   -2.824084646694
 H   -0.987234070132   -3.571598546554   -1.170084646694
 H   -0.504234070132   -5.290598546554   -1.386084646694
RB   -2.141567716226    3.787574074228    3.290200927445
