14

 P    1.327225445214   -2.417251853390   -2.353235987673
 O    0.740225445214   -1.367251853390   -1.398235987673
 O    1.061225445214   -2.369251853390   -3.865235987673
 O    2.990225445214   -2.591251853390   -2.066235987673
 O    1.012225445214   -3.975251853390   -1.761235987673
 C    3.727225445214   -1.426251853390   -2.443235987673
 H    3.396225445214   -0.543251853390   -1.867235987673
 H    3.612225445214   -1.215251853390   -3.521235987673
 H    4.787225445214   -1.628251853390   -2.223235987673
 C   -0.378774554786   -4.298251853390   -1.811235987673
 H   -0.756774554786   -4.271251853390   -2.849235987673
 H   -0.971774554786   -3.599251853390   -1.195235987673
 H   -0.488774554786   -5.318251853390   -1.411235987673
RB   -2.164325982828    3.828283069002    3.327226727455
