14

 P    1.373603991250   -2.500211773898   -2.428690010611
 O    0.786603991250   -1.450211773898   -1.473690010611
 O    1.107603991250   -2.452211773898   -3.940690010611
 O    3.036603991250   -2.674211773898   -2.141690010611
 O    1.058603991250   -4.058211773898   -1.836690010611
 C    3.773603991250   -1.509211773898   -2.518690010611
 H    3.442603991250   -0.626211773898   -1.942690010611
 H    3.658603991250   -1.298211773898   -3.596690010611
 H    4.833603991250   -1.711211773898   -2.298690010611
 C   -0.332396008750   -4.381211773898   -1.886690010611
 H   -0.710396008750   -4.354211773898   -2.924690010611
 H   -0.925396008750   -3.682211773898   -1.270690010611
 H   -0.442396008750   -5.401211773898   -1.486690010611
RB   -2.232600782636    3.950410053326    3.438304127482
