14

 P    1.466361083322   -2.666131614913   -2.579598056487
 O    0.879361083322   -1.616131614913   -1.624598056487
 O    1.200361083322   -2.618131614913   -4.091598056487
 O    3.129361083322   -2.840131614913   -2.292598056487
 O    1.151361083322   -4.224131614913   -1.987598056487
 C    3.866361083322   -1.675131614913   -2.669598056487
 H    3.535361083322   -0.792131614913   -2.093598056487
 H    3.751361083322   -1.464131614913   -3.747598056487
 H    4.926361083322   -1.877131614913   -2.449598056487
 C   -0.239638916678   -4.547131614913   -2.037598056487
 H   -0.617638916678   -4.520131614913   -3.075598056487
 H   -0.832638916678   -3.848131614913   -1.421598056487
 H   -0.349638916678   -5.567131614913   -1.637598056487
RB   -2.369150382251    4.194664021973    3.660458927538
