14

 P    1.512739629358   -2.749091535420   -2.655052079425
 O    0.925739629358   -1.699091535420   -1.700052079425
 O    1.246739629358   -2.701091535420   -4.167052079425
 O    3.175739629358   -2.923091535420   -2.368052079425
 O    1.197739629358   -4.307091535420   -2.063052079425
 C    3.912739629358   -1.758091535420   -2.745052079425
 H    3.581739629358   -0.875091535420   -2.169052079425
 H    3.797739629358   -1.547091535420   -3.823052079425
 H    4.972739629358   -1.960091535420   -2.525052079425
 C   -0.193260370642   -4.630091535420   -2.113052079425
 H   -0.571260370642   -4.603091535420   -3.151052079425
 H   -0.786260370642   -3.931091535420   -1.497052079425
 H   -0.303260370642   -5.650091535420   -1.713052079425
RB   -2.437425182059    4.316791006297    3.771536327565
