14

 P    1.559118175394   -2.832051455928   -2.730506102363
 O    0.972118175394   -1.782051455928   -1.775506102363
 O    1.293118175394   -2.784051455928   -4.242506102363
 O    3.222118175394   -3.006051455928   -2.443506102363
 O    1.244118175394   -4.390051455928   -2.138506102363
 C    3.959118175394   -1.841051455928   -2.820506102363
 H    3.628118175394   -0.958051455928   -2.244506102363
 H    3.844118175394   -1.630051455928   -3.898506102363
 H    5.019118175394   -2.043051455928   -2.600506102363
 C   -0.146881824606   -4.713051455928   -2.188506102363
 H   -0.524881824606   -4.686051455928   -3.226506102363
 H   -0.739881824606   -4.014051455928   -1.572506102363
 H   -0.256881824606   -5.733051455928   -1.788506102363
RB   -2.505699981866    4.438917990620    3.882613727593
