14

 P    1.620956236776   -2.942664683272   -2.831111466280
 O    1.033956236776   -1.892664683272   -1.876111466280
 O    1.354956236776   -2.894664683272   -4.343111466280
 O    3.283956236776   -3.116664683272   -2.544111466280
 O    1.305956236776   -4.500664683272   -2.239111466280
 C    4.020956236776   -1.951664683272   -2.921111466280
 H    3.689956236776   -1.068664683272   -2.345111466280
 H    3.905956236776   -1.740664683272   -3.999111466280
 H    5.080956236776   -2.153664683272   -2.701111466280
 C   -0.085043763224   -4.823664683272   -2.289111466280
 H   -0.463043763224   -4.796664683272   -3.327111466280
 H   -0.678043763224   -4.124664683272   -1.673111466280
 H   -0.195043763224   -5.843664683272   -1.889111466280
RB   -2.596733048277    4.601753969718    4.030716927630
