14

 P    1.636415752121   -2.970317990107   -2.856262807259
 O    1.049415752121   -1.920317990107   -1.901262807259
 O    1.370415752121   -2.922317990107   -4.368262807259
 O    3.299415752121   -3.144317990107   -2.569262807259
 O    1.321415752121   -4.528317990107   -2.264262807259
 C    4.036415752121   -1.979317990107   -2.946262807259
 H    3.705415752121   -1.096317990107   -2.370262807259
 H    3.921415752121   -1.768317990107   -4.024262807259
 H    5.096415752121   -2.181317990107   -2.726262807259
 C   -0.069584247879   -4.851317990107   -2.314262807259
 H   -0.447584247879   -4.824317990107   -3.352262807259
 H   -0.662584247879   -4.152317990107   -1.698262807259
 H   -0.179584247879   -5.871317990107   -1.914262807259
RB   -2.619491314879    4.642462964493    4.067742727639
