14

 P    1.667334782812   -3.025624603779   -2.906565489218
 O    1.080334782812   -1.975624603779   -1.951565489218
 O    1.401334782812   -2.977624603779   -4.418565489218
 O    3.330334782812   -3.199624603779   -2.619565489218
 O    1.352334782812   -4.583624603779   -2.314565489218
 C    4.067334782812   -2.034624603779   -2.996565489218
 H    3.736334782812   -1.151624603779   -2.420565489218
 H    3.952334782812   -1.823624603779   -4.074565489218
 H    5.127334782812   -2.236624603779   -2.776565489218
 C   -0.038665217188   -4.906624603779   -2.364565489218
 H   -0.416665217188   -4.879624603779   -3.402565489218
 H   -0.631665217188   -4.207624603779   -1.748565489218
 H   -0.148665217188   -5.926624603779   -1.964565489218
RB   -2.665007848084    4.723880954042    4.141794327658
