10

 C    1.988398603883   -0.671116419328   -1.384846049591
 C    0.889099603883    0.377743580672   -1.384846049591
 N   -0.390508396117   -0.126045419328   -1.384846049591
 H   -1.165181396117    0.524538580672   -1.384846049591
 H   -0.577179396117   -1.118096419328   -1.384846049591
 O    1.110691603883    1.590745580672   -1.384846049591
 H    2.959063603883   -0.161971419328   -1.384846049591
 H    1.908760603883   -1.312121419328   -0.492599049591
 H    1.908760603883   -1.312121419328   -2.277093049591
CS   -0.390508396117   -0.126045419328    0.615153950409
