10

 C    1.988398603883   -0.671116419328   -2.492722889265
 C    0.889099603883    0.377743580672   -2.492722889265
 N   -0.390508396117   -0.126045419328   -2.492722889265
 H   -1.165181396117    0.524538580672   -2.492722889265
 H   -0.577179396117   -1.118096419328   -2.492722889265
 O    1.110691603883    1.590745580672   -2.492722889265
 H    2.959063603883   -0.161971419328   -2.492722889265
 H    1.908760603883   -1.312121419328   -1.600475889265
 H    1.908760603883   -1.312121419328   -3.384969889265
CS   -0.390508396117   -0.126045419328    1.107277110735
