10

 C    1.988398603883   -0.671116419328   -5.054688081009
 C    0.889099603883    0.377743580672   -5.054688081009
 N   -0.390508396117   -0.126045419328   -5.054688081009
 H   -1.165181396117    0.524538580672   -5.054688081009
 H   -0.577179396117   -1.118096419328   -5.054688081009
 O    1.110691603883    1.590745580672   -5.054688081009
 H    2.959063603883   -0.161971419328   -5.054688081009
 H    1.908760603883   -1.312121419328   -4.162441081009
 H    1.908760603883   -1.312121419328   -5.946935081009
CS   -0.390508396117   -0.126045419328    2.245311918991
