10

 C    1.988398603883   -0.671116419328   -6.508776433080
 C    0.889099603883    0.377743580672   -6.508776433080
 N   -0.390508396117   -0.126045419328   -6.508776433080
 H   -1.165181396117    0.524538580672   -6.508776433080
 H   -0.577179396117   -1.118096419328   -6.508776433080
 O    1.110691603883    1.590745580672   -6.508776433080
 H    2.959063603883   -0.161971419328   -6.508776433080
 H    1.908760603883   -1.312121419328   -5.616529433080
 H    1.908760603883   -1.312121419328   -7.401023433080
CS   -0.390508396117   -0.126045419328    2.891223566920
