10

 C    1.988398603883   -0.671116419328   -6.647261038039
 C    0.889099603883    0.377743580672   -6.647261038039
 N   -0.390508396117   -0.126045419328   -6.647261038039
 H   -1.165181396117    0.524538580672   -6.647261038039
 H   -0.577179396117   -1.118096419328   -6.647261038039
 O    1.110691603883    1.590745580672   -6.647261038039
 H    2.959063603883   -0.161971419328   -6.647261038039
 H    1.908760603883   -1.312121419328   -5.755014038039
 H    1.908760603883   -1.312121419328   -7.539508038039
CS   -0.390508396117   -0.126045419328    2.952738961961
