10

 C    1.988398603883   -0.671116419328   -6.785745642998
 C    0.889099603883    0.377743580672   -6.785745642998
 N   -0.390508396117   -0.126045419328   -6.785745642998
 H   -1.165181396117    0.524538580672   -6.785745642998
 H   -0.577179396117   -1.118096419328   -6.785745642998
 O    1.110691603883    1.590745580672   -6.785745642998
 H    2.959063603883   -0.161971419328   -6.785745642998
 H    1.908760603883   -1.312121419328   -5.893498642998
 H    1.908760603883   -1.312121419328   -7.677992642998
CS   -0.390508396117   -0.126045419328    3.014254357002
