13

 N   -3.314198689382    1.115172761982    0.001511373770
 C   -2.140459106299    1.842544953492    0.001198894600
 H   -2.258175966362    2.927863412536    0.001083047041
 C   -3.359974662462   -0.278039029885    0.001126319201
 O   -4.411562831018   -0.912142343726    0.001469686305
 N   -2.099534121321   -0.861509086017    0.001543222523
 H   -2.089718324198   -1.879794197883    0.001515918428
 C   -0.838279832088   -0.225453599054    0.001560317359
 O    0.195413095980   -0.894717433470    0.000814651695
 C   -0.919758623848    1.235093462336    0.001060419912
 H    0.003641514454    1.812153721202    0.000719743135
 H   -4.217935865330    1.574826883342    0.001309722170
CS    1.798095619386   -0.075324276641   -0.001078417690
