13

 N   -7.275928223881   -0.910315144929    0.006190921208
 C   -6.102188640798   -0.182942953419    0.005878442038
 H   -6.219905500861    0.902375505625    0.005762594479
 C   -7.321704196961   -2.303526936796    0.005805866639
 O   -8.373292365517   -2.937630250637    0.006149233743
 N   -6.061263655820   -2.886996992928    0.006222769961
 H   -6.051447858697   -3.905282104794    0.006195465866
 C   -4.800009366587   -2.250941505965    0.006239864797
 O   -3.766316438519   -2.920205340381    0.005494199133
 C   -4.881488158347   -0.790394444575    0.005739967350
 H   -3.958088020045   -0.213334185709    0.005399290573
 H   -8.179665399829   -0.450661023569    0.005989269608
CS    5.137475358179    1.631978864224   -0.005022853009
