13

 N   -3.459140013815    1.041069545875    0.001682576725
 C   -2.285400430732    1.768441737385    0.001370097555
 H   -2.403117290795    2.853760196429    0.001254249996
 C   -3.504915986895   -0.352142245992    0.001297522156
 O   -4.556504155451   -0.986245559833    0.001640889260
 N   -2.244475445754   -0.935612302124    0.001714425478
 H   -2.234659648631   -1.953897413990    0.001687121383
 C   -0.983221156521   -0.299556815161    0.001731520314
 O    0.050471771547   -0.968820649577    0.000985854650
 C   -1.064699948281    1.160990246229    0.001231622867
 H   -0.141299809979    1.738050505095    0.000890946090
 H   -4.362877189763    1.500723667235    0.001480925125
CS    1.920268048854   -0.012861966610   -0.001222726299
