13

 N   -3.555767563437    0.991667401804    0.001796712029
 C   -2.382027980354    1.719039593314    0.001484232859
 H   -2.499744840417    2.804358052358    0.001368385300
 C   -3.601543536517   -0.401544390063    0.001411657460
 O   -4.653131705073   -1.035647703904    0.001755024564
 N   -2.341102995376   -0.985014446195    0.001828560782
 H   -2.331287198253   -2.003299558061    0.001801256687
 C   -1.079848706143   -0.348958959232    0.001845655618
 O   -0.046155778075   -1.018222793648    0.001099989954
 C   -1.161327497903    1.111588102158    0.001345758171
 H   -0.237927359601    1.688648361024    0.001005081394
 H   -4.459504739385    1.451321523164    0.001595060429
CS    2.001716335166    0.028779573412   -0.001318932039
