13

 N   -3.604081338248    0.966966329769    0.001853779680
 C   -2.430341755165    1.694338521279    0.001541300510
 H   -2.548058615228    2.779656980323    0.001425452951
 C   -3.649857311328   -0.426245462098    0.001468725111
 O   -4.701445479884   -1.060348775939    0.001812092215
 N   -2.389416770187   -1.009715518230    0.001885628433
 H   -2.379600973064   -2.028000630096    0.001858324338
 C   -1.128162480954   -0.373660031267    0.001902723269
 O   -0.094469552886   -1.042923865683    0.001157057605
 C   -1.209641272714    1.086887030123    0.001402825822
 H   -0.286241134412    1.663947288989    0.001062149045
 H   -4.507818514196    1.426620451129    0.001652128080
CS    2.042440478322    0.049600343422   -0.001367034909
