13

 N   -3.893963987113    0.818759897556    0.002196185590
 C   -2.720224404030    1.546132089066    0.001883706420
 H   -2.837941264093    2.631450548110    0.001767858861
 C   -3.939739960193   -0.574451894311    0.001811131021
 O   -4.991328128749   -1.208555208152    0.002154498125
 N   -2.679299419052   -1.157921950443    0.002228034343
 H   -2.669483621929   -2.176207062309    0.002200730248
 C   -1.418045129819   -0.521866463480    0.002245129179
 O   -0.384352201751   -1.191130297896    0.001499463515
 C   -1.499523921579    0.938680597910    0.001745231732
 H   -0.576123783277    1.515740856776    0.001404554955
 H   -4.797701163061    1.278414018916    0.001994533990
CS    2.286785337258    0.174524963485   -0.001655652127
