13

 N   -3.990591536735    0.769357753485    0.002310320894
 C   -2.816851953652    1.496729944995    0.001997841724
 H   -2.934568813715    2.582048404039    0.001881994165
 C   -4.036367509815   -0.623854038382    0.001925266325
 O   -5.087955678371   -1.257957352223    0.002268633429
 N   -2.775926968674   -1.207324094514    0.002342169647
 H   -2.766111171551   -2.225609206380    0.002314865552
 C   -1.514672679441   -0.571268607551    0.002359264483
 O   -0.480979751373   -1.240532441967    0.001613598819
 C   -1.596151471201    0.889278453839    0.001859367036
 H   -0.672751332899    1.466338712705    0.001518690259
 H   -4.894328712683    1.229011874845    0.002108669294
CS    2.368233623570    0.216166503507   -0.001751857867
