13

 N   -4.087219086357    0.719955609414    0.002424456197
 C   -2.913479503274    1.447327800924    0.002111977027
 H   -3.031196363337    2.532646259968    0.001996129468
 C   -4.132995059437   -0.673256182453    0.002039401628
 O   -5.184583227993   -1.307359496294    0.002382768732
 N   -2.872554518296   -1.256726238585    0.002456304950
 H   -2.862738721173   -2.275011350451    0.002429000855
 C   -1.611300229063   -0.620670751622    0.002473399786
 O   -0.577607300995   -1.289934586038    0.001727734122
 C   -1.692779020823    0.839876309768    0.001973502339
 H   -0.769378882521    1.416936568634    0.001632825562
 H   -4.990956262305    1.179609730774    0.002222804597
CS    2.449681909882    0.257808043528   -0.001848063606
