13

 N   -4.183846635979    0.670553465343    0.002538591501
 C   -3.010107052896    1.397925656853    0.002226112331
 H   -3.127823912959    2.483244115897    0.002110264772
 C   -4.229622609059   -0.722658326524    0.002153536932
 O   -5.281210777615   -1.356761640365    0.002496904036
 N   -2.969182067918   -1.306128382656    0.002570440254
 H   -2.959366270795   -2.324413494522    0.002543136159
 C   -1.707927778685   -0.670072895693    0.002587535090
 O   -0.674234850617   -1.339336730109    0.001841869426
 C   -1.789406570445    0.790474165697    0.002087637643
 H   -0.866006432143    1.367534424563    0.001746960866
 H   -5.087583811927    1.130207586703    0.002336939901
CS    2.531130196194    0.299449583549   -0.001944269346
