13

 N   -4.328787960412    0.596450249237    0.002709794456
 C   -3.155048377329    1.323822440747    0.002397315286
 H   -3.272765237392    2.409140899791    0.002281467727
 C   -4.374563933492   -0.796761542630    0.002324739887
 O   -5.426152102048   -1.430864856471    0.002668106991
 N   -3.114123392351   -1.380231598762    0.002741643209
 H   -3.104307595228   -2.398516710628    0.002714339114
 C   -1.852869103118   -0.744176111799    0.002758738045
 O   -0.819176175050   -1.413439946215    0.002013072381
 C   -1.934347894878    0.716370949591    0.002258840598
 H   -1.010947756576    1.293431208457    0.001918163821
 H   -5.232525136360    1.056104370597    0.002508142856
CS    2.653302625662    0.361911893580   -0.002088577955
