13

 N   -4.377101735223    0.571749177201    0.002766862107
 C   -3.203362152140    1.299121368711    0.002454382937
 H   -3.321079012203    2.384439827755    0.002338535378
 C   -4.422877708303   -0.821462614666    0.002381807538
 O   -5.474465876859   -1.455565928507    0.002725174642
 N   -3.162437167162   -1.404932670798    0.002798710860
 H   -3.152621370039   -2.423217782664    0.002771406765
 C   -1.901182877929   -0.768877183835    0.002815805696
 O   -0.867489949861   -1.438141018251    0.002070140032
 C   -1.982661669689    0.691669877555    0.002315908249
 H   -1.059261531387    1.268730136421    0.001975231472
 H   -5.280838911171    1.031403298561    0.002565210507
CS    2.694026768818    0.382732663591   -0.002136680824
