13

 N   -4.425415510034    0.547048105166    0.002823929759
 C   -3.251675926951    1.274420296676    0.002511450589
 H   -3.369392787014    2.359738755720    0.002395603030
 C   -4.471191483114   -0.846163686701    0.002438875190
 O   -5.522779651670   -1.480267000542    0.002782242294
 N   -3.210750941973   -1.429633742833    0.002855778512
 H   -3.200935144850   -2.447918854699    0.002828474417
 C   -1.949496652740   -0.793578255870    0.002872873348
 O   -0.915803724672   -1.462842090286    0.002127207684
 C   -2.030975444500    0.666968805520    0.002372975901
 H   -1.107575306198    1.244029064386    0.002032299124
 H   -5.329152685982    1.006702226526    0.002622278159
CS    2.734750911974    0.403553433601   -0.002184783694
