13

 N   -4.522043059656    0.497645961095    0.002938065062
 C   -3.348303476573    1.225018152605    0.002625585892
 H   -3.466020336636    2.310336611649    0.002509738333
 C   -4.567819032736   -0.895565830772    0.002553010493
 O   -5.619407201292   -1.529669144613    0.002896377597
 N   -3.307378491595   -1.479035886904    0.002969913815
 H   -3.297562694472   -2.497320998770    0.002942609720
 C   -2.046124202362   -0.842980399941    0.002987008651
 O   -1.012431274294   -1.512244234357    0.002241342987
 C   -2.127602994122    0.617566661449    0.002487111204
 H   -1.204202855820    1.194626920315    0.002146434427
 H   -5.425780235604    0.957300082455    0.002736413462
CS    2.816199198286    0.445194973623   -0.002280989434
