13

 N   -4.618670609278    0.448243817024    0.003052200366
 C   -3.444931026195    1.175616008534    0.002739721196
 H   -3.562647886258    2.260934467578    0.002623873637
 C   -4.664446582358   -0.944967974843    0.002667145797
 O   -5.716034750914   -1.579071288684    0.003010512901
 N   -3.404006041217   -1.528438030975    0.003084049119
 H   -3.394190244094   -2.546723142841    0.003056745024
 C   -2.142751751984   -0.892382544012    0.003101143955
 O   -1.109058823916   -1.561646378428    0.002355478291
 C   -2.224230543744    0.568164517378    0.002601246508
 H   -1.300830405442    1.145224776244    0.002260569731
 H   -5.522407785226    0.907897938384    0.002850548766
CS    2.897647484598    0.486836513644   -0.002377195173
