13

 N   -4.666984384089    0.423542744988    0.003109268017
 C   -3.493244801006    1.150914936498    0.002796788847
 H   -3.610961661069    2.236233395542    0.002680941288
 C   -4.712760357169   -0.969669046879    0.002724213448
 O   -5.764348525725   -1.603772360720    0.003067580552
 N   -3.452319816028   -1.553139103011    0.003141116770
 H   -3.442504018905   -2.571424214877    0.003113812675
 C   -2.191065526795   -0.917083616048    0.003158211606
 O   -1.157372598727   -1.586347450464    0.002412545942
 C   -2.272544318555    0.543463445342    0.002658314159
 H   -1.349144180253    1.120523704208    0.002317637382
 H   -5.570721560037    0.883196866348    0.002907616417
CS    2.938371627754    0.507657283654   -0.002425298043
