13

 N   -4.715298158900    0.398841672953    0.003166335669
 C   -3.541558575817    1.126213864463    0.002853856499
 H   -3.659275435880    2.211532323507    0.002738008940
 C   -4.761074131980   -0.994370118914    0.002781281100
 O   -5.812662300536   -1.628473432755    0.003124648204
 N   -3.500633590839   -1.577840175046    0.003198184422
 H   -3.490817793716   -2.596125286912    0.003170880327
 C   -2.239379301606   -0.941784688083    0.003215279258
 O   -1.205686373538   -1.611048522499    0.002469613594
 C   -2.320858093366    0.518762373307    0.002715381811
 H   -1.397457955064    1.095822632173    0.002374705034
 H   -5.619035334848    0.858495794313    0.002964684069
CS    2.979095770910    0.528478053665   -0.002473400913
