13

 N   -4.763611933711    0.374140600917    0.003223403321
 C   -3.589872350628    1.101512792427    0.002910924151
 H   -3.707589210691    2.186831251471    0.002795076592
 C   -4.809387906791   -1.019071190950    0.002838348752
 O   -5.860976075347   -1.653174504791    0.003181715856
 N   -3.548947365650   -1.602541247082    0.003255252074
 H   -3.539131568527   -2.620826358948    0.003227947979
 C   -2.287693076417   -0.966485760119    0.003272346910
 O   -1.254000148349   -1.635749594535    0.002526681246
 C   -2.369171868177    0.494061301271    0.002772449463
 H   -1.445771729875    1.071121560137    0.002431772686
 H   -5.667349109659    0.833794722277    0.003021751721
CS    3.019819914067    0.549298823675   -0.002521503782
