13

 N   -4.811925708522    0.349439528882    0.003280470972
 C   -3.638186125439    1.076811720392    0.002967991802
 H   -3.755902985502    2.162130179436    0.002852144243
 C   -4.857701681602   -1.043772262985    0.002895416403
 O   -5.909289850158   -1.677875576826    0.003238783507
 N   -3.597261140461   -1.627242319117    0.003312319725
 H   -3.587445343338   -2.645527430983    0.003285015630
 C   -2.336006851228   -0.991186832154    0.003329414561
 O   -1.302313923160   -1.660450666570    0.002583748897
 C   -2.417485642988    0.469360229236    0.002829517114
 H   -1.494085504686    1.046420488102    0.002488840337
 H   -5.715662884470    0.809093650242    0.003078819372
CS    3.060544057223    0.570119593686   -0.002569606652
