13

 N   -5.101808357388    0.201233096669    0.003622876882
 C   -3.928068774305    0.928605288179    0.003310397712
 H   -4.045785634368    2.013923747223    0.003194550153
 C   -5.147584330468   -1.191978695198    0.003237822313
 O   -6.199172499024   -1.826082009039    0.003581189417
 N   -3.887143789327   -1.775448751330    0.003654725635
 H   -3.877327992204   -2.793733863196    0.003627421540
 C   -2.625889500094   -1.139393264367    0.003671820471
 O   -1.592196572026   -1.808657098783    0.002926154807
 C   -2.707368291854    0.321153797023    0.003171923024
 H   -1.783968153552    0.898214055889    0.002831246247
 H   -6.005545533336    0.660887218029    0.003421225282
CS    3.304888916159    0.695044213749   -0.002858223871
