13

 N   -5.150122132199    0.176532024633    0.003679944534
 C   -3.976382549116    0.903904216143    0.003367465364
 H   -4.094099409179    1.989222675187    0.003251617805
 C   -5.195898105279   -1.216679767234    0.003294889965
 O   -6.247486273835   -1.850783081075    0.003638257069
 N   -3.935457564138   -1.800149823366    0.003711793287
 H   -3.925641767015   -2.818434935232    0.003684489192
 C   -2.674203274905   -1.164094336403    0.003728888123
 O   -1.640510346837   -1.833358170819    0.002983222459
 C   -2.755682066665    0.296452724987    0.003228990676
 H   -1.832281928363    0.873512983853    0.002888313899
 H   -6.053859308147    0.636186145993    0.003478292934
CS    3.345613059315    0.715864983760   -0.002906326740
