13

 N   -5.198435907010    0.151830952598    0.003737012186
 C   -4.024696323927    0.879203144108    0.003424533016
 H   -4.142413183990    1.964521603152    0.003308685457
 C   -5.244211880090   -1.241380839269    0.003351957617
 O   -6.295800048646   -1.875484153110    0.003695324721
 N   -3.983771338949   -1.824850895401    0.003768860939
 H   -3.973955541826   -2.843136007267    0.003741556844
 C   -2.722517049716   -1.188795408438    0.003785955775
 O   -1.688824121648   -1.858059242854    0.003040290111
 C   -2.803995841476    0.271751652952    0.003286058328
 H   -1.880595703174    0.848811911818    0.002945381551
 H   -6.102173082958    0.611485073958    0.003535360586
CS    3.386337202471    0.736685753770   -0.002954429610
