13

 N   -5.536632330686   -0.021076551651    0.004136485748
 C   -4.362892747603    0.706295639859    0.003824006578
 H   -4.480609607666    1.791614098903    0.003708159019
 C   -5.582408303766   -1.414288343518    0.003751431179
 O   -6.633996472322   -2.048391657359    0.004094798283
 N   -4.321967762625   -1.997758399650    0.004168334501
 H   -4.312151965502   -3.016043511516    0.004141030406
 C   -3.060713473392   -1.361702912687    0.004185429337
 O   -2.027020545324   -2.030966747103    0.003439763673
 C   -3.142192265152    0.098844148703    0.003685531890
 H   -2.218792126850    0.675904407569    0.003344855113
 H   -6.440369506634    0.438577569709    0.003934834148
CS    3.671406204563    0.882431143844   -0.003291149698
