13

 N   -5.584946105497   -0.045777623686    0.004193553399
 C   -4.411206522414    0.681594567824    0.003881074229
 H   -4.528923382477    1.766913026868    0.003765226670
 C   -5.630722078577   -1.438989415553    0.003808498830
 O   -6.682310247133   -2.073092729394    0.004151865934
 N   -4.370281537436   -2.022459471685    0.004225402152
 H   -4.360465740313   -3.040744583551    0.004198098057
 C   -3.109027248203   -1.386403984722    0.004242496988
 O   -2.075334320135   -2.055667819138    0.003496831324
 C   -3.190506039963    0.074143076668    0.003742599541
 H   -2.267105901661    0.651203335534    0.003401922764
 H   -6.488683281445    0.413876497674    0.003991901799
CS    3.712130347719    0.903251913855   -0.003339252568
