13

 N   -5.729887429930   -0.119880839793    0.004364756354
 C   -4.556147846847    0.607491351717    0.004052277184
 H   -4.673864706910    1.692809810761    0.003936429625
 C   -5.775663403010   -1.513092631660    0.003979701785
 O   -6.827251571566   -2.147195945501    0.004323068889
 N   -4.515222861869   -2.096562687792    0.004396605107
 H   -4.505407064746   -3.114847799658    0.004369301012
 C   -3.253968572636   -1.460507200829    0.004413699943
 O   -2.220275644568   -2.129771035245    0.003668034279
 C   -3.335447364396    0.000039860561    0.003913802496
 H   -2.412047226094    0.577100119427    0.003573125719
 H   -6.633624605878    0.339773281567    0.004163104754
CS    3.834302777187    0.965714223886   -0.003483561177
