13

 N   -5.826514979552   -0.169282983864    0.004478891658
 C   -4.652775396469    0.558089207646    0.004166412488
 H   -4.770492256532    1.643407666690    0.004050564929
 C   -5.872290952632   -1.562494775731    0.004093837089
 O   -6.923879121188   -2.196598089572    0.004437204193
 N   -4.611850411491   -2.145964831863    0.004510740411
 H   -4.602034614368   -3.164249943729    0.004483436316
 C   -3.350596122258   -1.509909344900    0.004527835247
 O   -2.316903194190   -2.179173179316    0.003782169583
 C   -3.432074914018   -0.049362283510    0.004027937800
 H   -2.508674775716    0.527697975356    0.003687261023
 H   -6.730252155500    0.290371137496    0.004277240058
CS    3.915751063499    1.007355763907   -0.003579766917
