13

 N   -5.971456303985   -0.243386199970    0.004650094613
 C   -4.797716720902    0.483985991540    0.004337615443
 H   -4.915433580965    1.569304450584    0.004221767884
 C   -6.017232277065   -1.636597991837    0.004265040044
 O   -7.068820445621   -2.270701305678    0.004608407148
 N   -4.756791735924   -2.220068047969    0.004681943366
 H   -4.746975938801   -3.238353159835    0.004654639271
 C   -3.495537446691   -1.584012561006    0.004699038202
 O   -2.461844518623   -2.253276395422    0.003953372538
 C   -3.577016238451   -0.123465499616    0.004199140755
 H   -2.653616100149    0.453594759250    0.003858463978
 H   -6.875193479933    0.216267921390    0.004448443013
CS    4.037923492967    1.069818073939   -0.003724075526
