13

 N   -6.019770078796   -0.268087272006    0.004707162264
 C   -4.846030495713    0.459284919504    0.004394683094
 H   -4.963747355776    1.544603378548    0.004278835535
 C   -6.065546051876   -1.661299063873    0.004322107695
 O   -7.117134220432   -2.295402377714    0.004665474799
 N   -4.805105510735   -2.244769120005    0.004739011017
 H   -4.795289713612   -3.263054231871    0.004711706922
 C   -3.543851221502   -1.608713633042    0.004756105853
 O   -2.510158293434   -2.277977467458    0.004010440189
 C   -3.625330013262   -0.148166571652    0.004256208406
 H   -2.701929874960    0.428893687214    0.003915531629
 H   -6.923507254744    0.191566849354    0.004505510664
CS    4.078647636123    1.090638843950   -0.003772178396
