13

 N   -6.116397628418   -0.317489416077    0.004821297568
 C   -4.942658045335    0.409882775433    0.004508818398
 H   -5.060374905398    1.495201234477    0.004392970839
 C   -6.162173601498   -1.710701207944    0.004436242999
 O   -7.213761770054   -2.344804521785    0.004779610103
 N   -4.901733060357   -2.294171264076    0.004853146321
 H   -4.891917263234   -3.312456375942    0.004825842226
 C   -3.640478771124   -1.658115777113    0.004870241157
 O   -2.606785843056   -2.327379611529    0.004124575493
 C   -3.721957562884   -0.197568715723    0.004370343710
 H   -2.798557424582    0.379491543143    0.004029666933
 H   -7.020134804366    0.142164705283    0.004619645968
CS    4.160095922435    1.132280383971   -0.003868384135
