13

 N   -6.164711403229   -0.342190488112    0.004878365219
 C   -4.990971820146    0.385181703398    0.004565886049
 H   -5.108688680209    1.470500162442    0.004450038490
 C   -6.210487376309   -1.735402279979    0.004493310650
 O   -7.262075544865   -2.369505593820    0.004836677754
 N   -4.950046835168   -2.318872336111    0.004910213972
 H   -4.940231038045   -3.337157447977    0.004882909877
 C   -3.688792545935   -1.682816849148    0.004927308808
 O   -2.655099617867   -2.352080683564    0.004181643144
 C   -3.770271337695   -0.222269787758    0.004427411361
 H   -2.846871199393    0.354790471108    0.004086734584
 H   -7.068448579177    0.117463633248    0.004676713619
CS    4.200820065591    1.153101153981   -0.003916487005
