13

 N   -6.213025178040   -0.366891560148    0.004935432871
 C   -5.039285594957    0.360480631362    0.004622953701
 H   -5.157002455020    1.445799090406    0.004507106142
 C   -6.258801151120   -1.760103352015    0.004550378302
 O   -7.310389319676   -2.394206665856    0.004893745406
 N   -4.998360609979   -2.343573408147    0.004967281624
 H   -4.988544812856   -3.361858520013    0.004939977529
 C   -3.737106320746   -1.707517921184    0.004984376460
 O   -2.703413392678   -2.376781755600    0.004238710796
 C   -3.818585112506   -0.246970859794    0.004484479013
 H   -2.895184974204    0.330089399072    0.004143802236
 H   -7.116762353988    0.092762561212    0.004733781271
CS    4.241544208747    1.173921923992   -0.003964589875
