13

 N   -6.502907826906   -0.515097992361    0.005277838781
 C   -5.329168243823    0.212274199149    0.004965359611
 H   -5.446885103886    1.297592658193    0.004849512052
 C   -6.548683799986   -1.908309784228    0.004892784212
 O   -7.600271968542   -2.542413098069    0.005236151316
 N   -5.288243258845   -2.491779840360    0.005309687534
 H   -5.278427461722   -3.510064952226    0.005282383439
 C   -4.026988969612   -1.855724353397    0.005326782370
 O   -2.993296041544   -2.524988187813    0.004581116706
 C   -4.108467761372   -0.395177292007    0.004826884923
 H   -3.185067623070    0.181882966859    0.004486208146
 H   -7.406645002854   -0.055443871001    0.005076187181
CS    4.485889067683    1.298846544055   -0.004253207093
