13

 N   -6.551221601717   -0.539799064396    0.005334906433
 C   -5.377482018634    0.187573127114    0.005022427263
 H   -5.495198878697    1.272891586158    0.004906579704
 C   -6.596997574797   -1.933010856263    0.004949851864
 O   -7.648585743353   -2.567114170104    0.005293218968
 N   -5.336557033656   -2.516480912395    0.005366755186
 H   -5.326741236533   -3.534766024261    0.005339451091
 C   -4.075302744423   -1.880425425432    0.005383850022
 O   -3.041609816355   -2.549689259848    0.004638184358
 C   -4.156781536183   -0.419878364042    0.004883952575
 H   -3.233381397881    0.157181894824    0.004543275798
 H   -7.454958777665   -0.080144943036    0.005133254833
CS    4.526613210839    1.319667314066   -0.004301309963
