13

 N   -6.599535376528   -0.564500136432    0.005391974084
 C   -5.425795793445    0.162872055078    0.005079494914
 H   -5.543512653508    1.248190514122    0.004963647355
 C   -6.645311349608   -1.957711928299    0.005006919515
 O   -7.696899518164   -2.591815242140    0.005350286619
 N   -5.384870808467   -2.541181984431    0.005423822837
 H   -5.375055011344   -3.559467096297    0.005396518742
 C   -4.123616519234   -1.905126497468    0.005440917673
 O   -3.089923591166   -2.574390331884    0.004695252009
 C   -4.205095310994   -0.444579436078    0.004941020226
 H   -3.281695172692    0.132480822788    0.004600343449
 H   -7.503272552476   -0.104846015072    0.005190322484
CS    4.567337353995    1.340488084076   -0.004349412833
