13

 N   -6.744476700961   -0.638603352538    0.005563177039
 C   -5.570737117878    0.088768838972    0.005250697869
 H   -5.688453977941    1.174087298016    0.005134850310
 C   -6.790252674041   -2.031815144405    0.005178122470
 O   -7.841840842597   -2.665918458246    0.005521489574
 N   -5.529812132900   -2.615285200537    0.005595025792
 H   -5.519996335777   -3.633570312403    0.005567721697
 C   -4.268557843667   -1.979229713574    0.005612120628
 O   -3.234864915599   -2.648493547990    0.004866454964
 C   -4.350036635427   -0.518682652184    0.005112223181
 H   -3.426636497125    0.058377606682    0.004771546404
 H   -7.648213876909   -0.178949231178    0.005361525439
CS    4.689509783463    1.402950394108   -0.004493721442
