13

 N   -6.841104250583   -0.688005496609    0.005677312343
 C   -5.667364667500    0.039366694901    0.005364833173
 H   -5.785081527563    1.124685153945    0.005248985614
 C   -6.886880223663   -2.081217288476    0.005292257774
 O   -7.938468392219   -2.715320602317    0.005635624878
 N   -5.626439682522   -2.664687344608    0.005709161096
 H   -5.616623885399   -3.682972456474    0.005681857001
 C   -4.365185393289   -2.028631857645    0.005726255932
 O   -3.331492465221   -2.697895692061    0.004980590268
 C   -4.446664185049   -0.568084796255    0.005226358485
 H   -3.523264046747    0.008975462611    0.004885681708
 H   -7.744841426531   -0.228351375249    0.005475660743
CS    4.770958069775    1.444591934129   -0.004589927181
