13

 N   -6.889418025394   -0.712706568645    0.005734379994
 C   -5.715678442311    0.014665622865    0.005421900824
 H   -5.833395302374    1.099984081909    0.005306053265
 C   -6.935193998474   -2.105918360512    0.005349325425
 O   -7.986782167030   -2.740021674353    0.005692692529
 N   -5.674753457333   -2.689388416644    0.005766228747
 H   -5.664937660210   -3.707673528510    0.005738924652
 C   -4.413499168100   -2.053332929681    0.005783323583
 O   -3.379806240032   -2.722596764097    0.005037657919
 C   -4.494977959860   -0.592785868291    0.005283426136
 H   -3.571577821558   -0.015725609425    0.004942749359
 H   -7.793155201342   -0.253052447285    0.005532728394
CS    4.811682212931    1.465412704139   -0.004638030051
