13

 N   -6.937731800205   -0.737407640680    0.005791447646
 C   -5.763992217122   -0.010035449170    0.005478968476
 H   -5.881709077185    1.075283009874    0.005363120917
 C   -6.983507773285   -2.130619432547    0.005406393077
 O   -8.035095941841   -2.764722746388    0.005749760181
 N   -5.723067232144   -2.714089488679    0.005823296399
 H   -5.713251435021   -3.732374600545    0.005795992304
 C   -4.461812942911   -2.078034001716    0.005840391235
 O   -3.428120014843   -2.747297836132    0.005094725571
 C   -4.543291734671   -0.617486940326    0.005340493788
 H   -3.619891596369   -0.040426681460    0.004999817011
 H   -7.841468976153   -0.277753519320    0.005589796046
CS    4.852406356087    1.486233474150   -0.004686132921
