13

 N   -6.986045575016   -0.762108712716    0.005848515298
 C   -5.812305991933   -0.034736521206    0.005536036128
 H   -5.930022851996    1.050581937838    0.005420188569
 C   -7.031821548096   -2.155320504583    0.005463460729
 O   -8.083409716652   -2.789423818424    0.005806827833
 N   -5.771381006955   -2.738790560715    0.005880364051
 H   -5.761565209832   -3.757075672581    0.005853059956
 C   -4.510126717722   -2.102735073752    0.005897458887
 O   -3.476433789654   -2.771998908168    0.005151793223
 C   -4.591605509482   -0.642188012362    0.005397561440
 H   -3.668205371180   -0.065127753496    0.005056884663
 H   -7.889782750964   -0.302454591356    0.005646863698
CS    4.893130499243    1.507054244161   -0.004734235791
