13

 N   -7.034359349827   -0.786809784751    0.005905582949
 C   -5.860619766744   -0.059437593241    0.005593103779
 H   -5.978336626807    1.025880865803    0.005477256220
 C   -7.080135322907   -2.180021576618    0.005520528380
 O   -8.131723491463   -2.814124890459    0.005863895484
 N   -5.819694781766   -2.763491632750    0.005937431702
 H   -5.809878984643   -3.781776744616    0.005910127607
 C   -4.558440492533   -2.127436145787    0.005954526538
 O   -3.524747564465   -2.796699980203    0.005208860874
 C   -4.639919284293   -0.666889084397    0.005454629091
 H   -3.716519145991   -0.089828825531    0.005113952314
 H   -7.938096525775   -0.327155663391    0.005703931349
CS    4.933854642399    1.527875014171   -0.004782338660
