13

 N   -7.130986899449   -0.836211928822    0.006019718253
 C   -5.957247316366   -0.108839737312    0.005707239083
 H   -6.074964176429    0.976478721732    0.005591391524
 C   -7.176762872529   -2.229423720689    0.005634663684
 O   -8.228351041085   -2.863527034530    0.005978030788
 N   -5.916322331388   -2.812893776821    0.006051567006
 H   -5.906506534265   -3.831178888687    0.006024262911
 C   -4.655068042155   -2.176838289858    0.006068661842
 O   -3.621375114087   -2.846102124274    0.005322996178
 C   -4.736546833915   -0.716291228468    0.005568764395
 H   -3.813146695613   -0.139230969602    0.005228087618
 H   -8.034724075397   -0.376557807462    0.005818066653
CS    5.015302928711    1.569516554192   -0.004878544400
