13

 N   -7.227614449070   -0.885614072893    0.006133853556
 C   -6.053874865987   -0.158241881383    0.005821374386
 H   -6.171591726050    0.927076577661    0.005705526827
 C   -7.273390422150   -2.278825864760    0.005748798987
 O   -8.324978590706   -2.912929178601    0.006092166091
 N   -6.012949881009   -2.862295920892    0.006165702309
 H   -6.003134083886   -3.880581032758    0.006138398214
 C   -4.751695591776   -2.226240433929    0.006182797145
 O   -3.718002663708   -2.895504268345    0.005437131481
 C   -4.833174383536   -0.765693372539    0.005682899698
 H   -3.909774245234   -0.188633113673    0.005342222921
 H   -8.131351625018   -0.425959951533    0.005932201956
CS    5.096751215023    1.611158094213   -0.004974750139
