14

 C    0.001387820167   -2.096432559427   -0.116726095386
 H    0.009109820167   -3.189607559427   -0.116726095386
 C    1.211863820167   -1.376593559427   -0.116726095386
 H    2.166882820167   -1.910292559427   -0.116726095386
 C   -1.218436179833   -1.396426559427   -0.116726095386
 H   -2.166568179833   -1.942238559427   -0.116726095386
 C    1.209455820167    0.028551440573   -0.116726095386
 H    2.140809820167    0.601090440573   -0.116726095386
 C   -1.232287179833    0.011054440573   -0.116726095386
 H   -2.184286179833    0.553775440573   -0.116726095386
 C   -0.016010179833    0.718836440573   -0.116726095386
 O    0.044536820167    2.099297440573   -0.116726095386
 H   -0.858594179833    2.447724440573   -0.116726095386
LI    0.101992734440    2.739523157685    1.564585847432
