14

 C    0.000501395391   -2.106309905302   -0.142665227694
 H    0.008223395391   -3.199484905302   -0.142665227694
 C    1.210977395391   -1.386470905302   -0.142665227694
 H    2.165996395391   -1.920169905302   -0.142665227694
 C   -1.219322604609   -1.406303905302   -0.142665227694
 H   -2.167454604609   -1.952115905302   -0.142665227694
 C    1.208569395391    0.018674094698   -0.142665227694
 H    2.139923395391    0.591213094698   -0.142665227694
 C   -1.233173604609    0.001177094698   -0.142665227694
 H   -2.185172604609    0.543898094698   -0.142665227694
 C   -0.016896604609    0.708959094698   -0.142665227694
 O    0.043650395391    2.089420094698   -0.142665227694
 H   -0.859480604609    2.437847094698   -0.142665227694
LI    0.113874290613    2.871918193390    1.912271591306
