14

 C    0.000058183003   -2.111248578239   -0.155634793848
 H    0.007780183003   -3.204423578239   -0.155634793848
 C    1.210534183003   -1.391409578239   -0.155634793848
 H    2.165553183003   -1.925108578239   -0.155634793848
 C   -1.219765816997   -1.411242578239   -0.155634793848
 H   -2.167897816997   -1.957054578239   -0.155634793848
 C    1.208126183003    0.013735421761   -0.155634793848
 H    2.139480183003    0.586274421761   -0.155634793848
 C   -1.233616816997   -0.003761578239   -0.155634793848
 H   -2.185615816997    0.538959421761   -0.155634793848
 C   -0.017339816997    0.704020421761   -0.155634793848
 O    0.043207183003    2.084481421761   -0.155634793848
 H   -0.859923816997    2.432908421761   -0.155634793848
LI    0.119815068700    2.938115711243    2.086114463243
