14

 C   -0.000163423191   -2.113717914708   -0.162119576925
 H    0.007558576809   -3.206892914708   -0.162119576925
 C    1.210312576809   -1.393878914708   -0.162119576925
 H    2.165331576809   -1.927577914708   -0.162119576925
 C   -1.219987423191   -1.413711914708   -0.162119576925
 H   -2.168119423191   -1.959523914708   -0.162119576925
 C    1.207904576809    0.011266085292   -0.162119576925
 H    2.139258576809    0.583805085292   -0.162119576925
 C   -1.233838423191   -0.006230914708   -0.162119576925
 H   -2.185837423191    0.536490085292   -0.162119576925
 C   -0.017561423191    0.701551085292   -0.162119576925
 O    0.042985576809    2.082012085292   -0.162119576925
 H   -0.860145423191    2.430439085292   -0.162119576925
LI    0.122785457744    2.971214470169    2.173035899212
