14

 C   -0.000828241773   -2.121125924114   -0.181573926156
 H    0.006893758227   -3.214300924114   -0.181573926156
 C    1.209647758227   -1.401286924114   -0.181573926156
 H    2.164666758227   -1.934985924114   -0.181573926156
 C   -1.220652241773   -1.421119924114   -0.181573926156
 H   -2.168784241773   -1.966931924114   -0.181573926156
 C    1.207239758227    0.003858075886   -0.181573926156
 H    2.138593758227    0.576397075886   -0.181573926156
 C   -1.234503241773   -0.013638924114   -0.181573926156
 H   -2.186502241773    0.529082075886   -0.181573926156
 C   -0.018226241773    0.694143075886   -0.181573926156
 O    0.042320758227    2.074604075886   -0.181573926156
 H   -0.860810241773    2.423031075886   -0.181573926156
LI    0.131696624874    3.070510746948    2.433800207117
