14

 C   -0.001493060355   -2.128533933521   -0.201028275387
 H    0.006228939645   -3.221708933521   -0.201028275387
 C    1.208982939645   -1.408694933521   -0.201028275387
 H    2.164001939645   -1.942393933521   -0.201028275387
 C   -1.221317060355   -1.428527933521   -0.201028275387
 H   -2.169449060355   -1.974339933521   -0.201028275387
 C    1.206574939645   -0.003549933521   -0.201028275387
 H    2.137928939645    0.568989066479   -0.201028275387
 C   -1.235168060355   -0.021046933521   -0.201028275387
 H   -2.187167060355    0.521674066479   -0.201028275387
 C   -0.018891060355    0.686735066479   -0.201028275387
 O    0.041655939645    2.067196066479   -0.201028275387
 H   -0.861475060355    2.415623066479   -0.201028275387
LI    0.140607792004    3.169807023727    2.694564515022
