14

 C   -0.001714666549   -2.131003269989   -0.207513058464
 H    0.006007333451   -3.224178269989   -0.207513058464
 C    1.208761333451   -1.411164269989   -0.207513058464
 H    2.163780333451   -1.944863269989   -0.207513058464
 C   -1.221538666549   -1.430997269989   -0.207513058464
 H   -2.169670666549   -1.976809269989   -0.207513058464
 C    1.206353333451   -0.006019269989   -0.207513058464
 H    2.137707333451    0.566519730011   -0.207513058464
 C   -1.235389666549   -0.023516269989   -0.207513058464
 H   -2.187388666549    0.519204730011   -0.207513058464
 C   -0.019112666549    0.684265730011   -0.207513058464
 O    0.041434333451    2.064726730011   -0.207513058464
 H   -0.861696666549    2.413153730011   -0.207513058464
LI    0.143578181047    3.202905782654    2.781485950991
