14

 C   -0.002601091325   -2.140880615865   -0.233452190772
 H    0.005120908675   -3.234055615865   -0.233452190772
 C    1.207874908675   -1.421041615865   -0.233452190772
 H    2.162893908675   -1.954740615865   -0.233452190772
 C   -1.222425091325   -1.440874615865   -0.233452190772
 H   -2.170557091325   -1.986686615865   -0.233452190772
 C    1.205466908675   -0.015896615865   -0.233452190772
 H    2.136820908675    0.556642384135   -0.233452190772
 C   -1.236276091325   -0.033393615865   -0.233452190772
 H   -2.188275091325    0.509327384135   -0.233452190772
 C   -0.019999091325    0.674388384135   -0.233452190772
 O    0.040547908675    2.054849384135   -0.233452190772
 H   -0.862583091325    2.403276384135   -0.233452190772
LI    0.155459737221    3.335300818359    3.129171694865
