14

 C   -0.003044303713   -2.145819288802   -0.246421756926
 H    0.004677696287   -3.238994288802   -0.246421756926
 C    1.207431696287   -1.425980288802   -0.246421756926
 H    2.162450696287   -1.959679288802   -0.246421756926
 C   -1.222868303713   -1.445813288802   -0.246421756926
 H   -2.171000303713   -1.991625288802   -0.246421756926
 C    1.205023696287   -0.020835288802   -0.246421756926
 H    2.136377696287    0.551703711198   -0.246421756926
 C   -1.236719303713   -0.038332288802   -0.246421756926
 H   -2.188718303713    0.504388711198   -0.246421756926
 C   -0.020442303713    0.669449711198   -0.246421756926
 O    0.040104696287    2.049910711198   -0.246421756926
 H   -0.863026303713    2.398337711198   -0.246421756926
LI    0.161400515308    3.401498336212    3.303014566802
