14

 C   -0.003930728489   -2.155696634677   -0.272360889234
 H    0.003791271511   -3.248871634677   -0.272360889234
 C    1.206545271511   -1.435857634677   -0.272360889234
 H    2.161564271511   -1.969556634677   -0.272360889234
 C   -1.223754728489   -1.455690634677   -0.272360889234
 H   -2.171886728489   -2.001502634677   -0.272360889234
 C    1.204137271511   -0.030712634677   -0.272360889234
 H    2.135491271511    0.541826365323   -0.272360889234
 C   -1.237605728489   -0.048209634677   -0.272360889234
 H   -2.189604728489    0.494511365323   -0.272360889234
 C   -0.021328728489    0.659572365323   -0.272360889234
 O    0.039218271511    2.040033365323   -0.272360889234
 H   -0.863912728489    2.388460365323   -0.272360889234
LI    0.173282071481    3.533893371917    3.650700310675
