14

 C   -0.004152334683   -2.158165971146   -0.278845672311
 H    0.003569665317   -3.251340971146   -0.278845672311
 C    1.206323665317   -1.438326971146   -0.278845672311
 H    2.161342665317   -1.972025971146   -0.278845672311
 C   -1.223976334683   -1.458159971146   -0.278845672311
 H   -2.172108334683   -2.003971971146   -0.278845672311
 C    1.203915665317   -0.033181971146   -0.278845672311
 H    2.135269665317    0.539357028854   -0.278845672311
 C   -1.237827334683   -0.050678971146   -0.278845672311
 H   -2.189826334683    0.492042028854   -0.278845672311
 C   -0.021550334683    0.657103028854   -0.278845672311
 O    0.038996665317    2.037564028854   -0.278845672311
 H   -0.864134334683    2.385991028854   -0.278845672311
LI    0.176252460525    3.566992130843    3.737621746644
