14

 C   -0.004373940877   -2.160635307615   -0.285330455388
 H    0.003348059123   -3.253810307615   -0.285330455388
 C    1.206102059123   -1.440796307615   -0.285330455388
 H    2.161121059123   -1.974495307615   -0.285330455388
 C   -1.224197940877   -1.460629307615   -0.285330455388
 H   -2.172329940877   -2.006441307615   -0.285330455388
 C    1.203694059123   -0.035651307615   -0.285330455388
 H    2.135048059123    0.536887692385   -0.285330455388
 C   -1.238048940877   -0.053148307615   -0.285330455388
 H   -2.190047940877    0.489572692385   -0.285330455388
 C   -0.021771940877    0.654633692385   -0.285330455388
 O    0.038775059123    2.035094692385   -0.285330455388
 H   -0.864355940877    2.383521692385   -0.285330455388
LI    0.179222849568    3.600090889770    3.824543182612
