14

 C   -0.005260365653   -2.170512653490   -0.311269587696
 H    0.002461634347   -3.263687653490   -0.311269587696
 C    1.205215634347   -1.450673653490   -0.311269587696
 H    2.160234634347   -1.984372653490   -0.311269587696
 C   -1.225084365653   -1.470506653490   -0.311269587696
 H   -2.173216365653   -2.016318653490   -0.311269587696
 C    1.202807634347   -0.045528653490   -0.311269587696
 H    2.134161634347    0.527010346510   -0.311269587696
 C   -1.238935365653   -0.063025653490   -0.311269587696
 H   -2.190934365653    0.479695346510   -0.311269587696
 C   -0.022658365653    0.644756346510   -0.311269587696
 O    0.037888634347    2.025217346510   -0.311269587696
 H   -0.865242365653    2.373644346510   -0.311269587696
LI    0.191104405742    3.732485925475    4.172228926486
