14

 C   -0.005481971847   -2.172981989959   -0.317754370773
 H    0.002240028153   -3.266156989959   -0.317754370773
 C    1.204994028153   -1.453142989959   -0.317754370773
 H    2.160013028153   -1.986841989959   -0.317754370773
 C   -1.225305971847   -1.472975989959   -0.317754370773
 H   -2.173437971847   -2.018787989959   -0.317754370773
 C    1.202586028153   -0.047997989959   -0.317754370773
 H    2.133940028153    0.524541010041   -0.317754370773
 C   -1.239156971847   -0.065494989959   -0.317754370773
 H   -2.191155971847    0.477226010041   -0.317754370773
 C   -0.022879971847    0.642287010041   -0.317754370773
 O    0.037667028153    2.022748010041   -0.317754370773
 H   -0.865463971847    2.371175010041   -0.317754370773
LI    0.194074794785    3.765584684401    4.259150362455
