14

 C   -0.005703578041   -2.175451326427   -0.324239153850
 H    0.002018421959   -3.268626326427   -0.324239153850
 C    1.204772421959   -1.455612326427   -0.324239153850
 H    2.159791421959   -1.989311326427   -0.324239153850
 C   -1.225527578041   -1.475445326427   -0.324239153850
 H   -2.173659578041   -2.021257326427   -0.324239153850
 C    1.202364421959   -0.050467326427   -0.324239153850
 H    2.133718421959    0.522071673573   -0.324239153850
 C   -1.239378578041   -0.067964326427   -0.324239153850
 H   -2.191377578041    0.474756673573   -0.324239153850
 C   -0.023101578041    0.639817673573   -0.324239153850
 O    0.037445421959    2.020278673573   -0.324239153850
 H   -0.865685578041    2.368705673573   -0.324239153850
LI    0.197045183829    3.798683443327    4.346071798423
