14

 C   -0.006811609011   -2.187798008771   -0.356663069235
 H    0.000910390989   -3.280973008771   -0.356663069235
 C    1.203664390989   -1.467959008771   -0.356663069235
 H    2.158683390989   -2.001658008771   -0.356663069235
 C   -1.226635609011   -1.487792008771   -0.356663069235
 H   -2.174767609011   -2.033604008771   -0.356663069235
 C    1.201256390989   -0.062814008771   -0.356663069235
 H    2.132610390989    0.509724991229   -0.356663069235
 C   -1.240486609011   -0.080311008771   -0.356663069235
 H   -2.192485609011    0.462409991229   -0.356663069235
 C   -0.024209609011    0.627470991229   -0.356663069235
 O    0.036337390989    2.007931991229   -0.356663069235
 H   -0.866793609011    2.356358991229   -0.356663069235
LI    0.211897129046    3.964177237959    4.780678978265
