14

 C   -0.007254821399   -2.192736681709   -0.369632635389
 H    0.000467178601   -3.285911681709   -0.369632635389
 C    1.203221178601   -1.472897681709   -0.369632635389
 H    2.158240178601   -2.006596681709   -0.369632635389
 C   -1.227078821399   -1.492730681709   -0.369632635389
 H   -2.175210821399   -2.038542681709   -0.369632635389
 C    1.200813178601   -0.067752681709   -0.369632635389
 H    2.132167178601    0.504786318291   -0.369632635389
 C   -1.240929821399   -0.085249681709   -0.369632635389
 H   -2.192928821399    0.457471318291   -0.369632635389
 C   -0.024652821399    0.622532318291   -0.369632635389
 O    0.035894178601    2.002993318291   -0.369632635389
 H   -0.867236821399    2.351420318291   -0.369632635389
LI    0.217837907132    4.030374755812    4.954521850202
