14

 C   -0.007698033787   -2.197675354646   -0.382602201543
 H    0.000023966213   -3.290850354646   -0.382602201543
 C    1.202777966213   -1.477836354646   -0.382602201543
 H    2.157796966213   -2.011535354646   -0.382602201543
 C   -1.227522033787   -1.497669354646   -0.382602201543
 H   -2.175654033787   -2.043481354646   -0.382602201543
 C    1.200369966213   -0.072691354646   -0.382602201543
 H    2.131723966213    0.499847645354   -0.382602201543
 C   -1.241373033787   -0.090188354646   -0.382602201543
 H   -2.193372033787    0.452532645354   -0.382602201543
 C   -0.025096033787    0.617593645354   -0.382602201543
 O    0.035450966213    1.998054645354   -0.382602201543
 H   -0.867680033787    2.346481645354   -0.382602201543
LI    0.223778685219    4.096572273664    5.128364722139
