14

 C   -0.007919639981   -2.200144691115   -0.389086984620
 H   -0.000197639981   -3.293319691115   -0.389086984620
 C    1.202556360019   -1.480305691115   -0.389086984620
 H    2.157575360019   -2.014004691115   -0.389086984620
 C   -1.227743639981   -1.500138691115   -0.389086984620
 H   -2.175875639981   -2.045950691115   -0.389086984620
 C    1.200148360019   -0.075160691115   -0.389086984620
 H    2.131502360019    0.497378308885   -0.389086984620
 C   -1.241594639981   -0.092657691115   -0.389086984620
 H   -2.193593639981    0.450063308885   -0.389086984620
 C   -0.025317639981    0.615124308885   -0.389086984620
 O    0.035229360019    1.995585308885   -0.389086984620
 H   -0.867901639981    2.344012308885   -0.389086984620
LI    0.226749074263    4.129671032591    5.215286158108
