14

 C   -0.008141246175   -2.202614027584   -0.395571767697
 H   -0.000419246175   -3.295789027584   -0.395571767697
 C    1.202334753825   -1.482775027584   -0.395571767697
 H    2.157353753825   -2.016474027584   -0.395571767697
 C   -1.227965246175   -1.502608027584   -0.395571767697
 H   -2.176097246175   -2.048420027584   -0.395571767697
 C    1.199926753825   -0.077630027584   -0.395571767697
 H    2.131280753825    0.494908972416   -0.395571767697
 C   -1.241816246175   -0.095127027584   -0.395571767697
 H   -2.193815246175    0.447593972416   -0.395571767697
 C   -0.025539246175    0.612654972416   -0.395571767697
 O    0.035007753825    1.993115972416   -0.395571767697
 H   -0.868123246175    2.341542972416   -0.395571767697
LI    0.229719463306    4.162769791517    5.302207594076
