14

 C   -0.008362852369   -2.205083364053   -0.402056550774
 H   -0.000640852369   -3.298258364053   -0.402056550774
 C    1.202113147631   -1.485244364053   -0.402056550774
 H    2.157132147631   -2.018943364053   -0.402056550774
 C   -1.228186852369   -1.505077364053   -0.402056550774
 H   -2.176318852369   -2.050889364053   -0.402056550774
 C    1.199705147631   -0.080099364053   -0.402056550774
 H    2.131059147631    0.492439635947   -0.402056550774
 C   -1.242037852369   -0.097596364053   -0.402056550774
 H   -2.194036852369    0.445124635947   -0.402056550774
 C   -0.025760852369    0.610185635947   -0.402056550774
 O    0.034786147631    1.990646635947   -0.402056550774
 H   -0.868344852369    2.339073635947   -0.402056550774
LI    0.232689852349    4.195868550443    5.389129030045
