14

 C   -0.009692489533   -2.219899382865   -0.440965249236
 H   -0.001970489533   -3.313074382865   -0.440965249236
 C    1.200783510467   -1.500060382865   -0.440965249236
 H    2.155802510467   -2.033759382865   -0.440965249236
 C   -1.229516489533   -1.519893382865   -0.440965249236
 H   -2.177648489533   -2.065705382865   -0.440965249236
 C    1.198375510467   -0.094915382865   -0.440965249236
 H    2.129729510467    0.477623617135   -0.440965249236
 C   -1.243367489533   -0.112412382865   -0.440965249236
 H   -2.195366489533    0.430308617135   -0.440965249236
 C   -0.027090489533    0.595369617135   -0.440965249236
 O    0.033456510467    1.975830617135   -0.440965249236
 H   -0.869674489533    2.324257617135   -0.440965249236
LI    0.250512186610    4.394461104001    5.910657645855
