14

 C   -0.010800520502   -2.232246065209   -0.473389164621
 H   -0.003078520502   -3.325421065209   -0.473389164621
 C    1.199675479498   -1.512407065209   -0.473389164621
 H    2.154694479498   -2.046106065209   -0.473389164621
 C   -1.230624520502   -1.532240065209   -0.473389164621
 H   -2.178756520502   -2.078052065209   -0.473389164621
 C    1.197267479498   -0.107262065209   -0.473389164621
 H    2.128621479498    0.465276934791   -0.473389164621
 C   -1.244475520502   -0.124759065209   -0.473389164621
 H   -2.196474520502    0.417961934791   -0.473389164621
 C   -0.028198520502    0.583022934791   -0.473389164621
 O    0.032348479498    1.963483934791   -0.473389164621
 H   -0.870782520502    2.311910934791   -0.473389164621
LI    0.265364131827    4.559954898633    6.345264825698
