14

 C   -0.011243732890   -2.237184738147   -0.486358730775
 H   -0.003521732890   -3.330359738147   -0.486358730775
 C    1.199232267110   -1.517345738147   -0.486358730775
 H    2.154251267110   -2.051044738147   -0.486358730775
 C   -1.231067732890   -1.537178738147   -0.486358730775
 H   -2.179199732890   -2.082990738147   -0.486358730775
 C    1.196824267110   -0.112200738147   -0.486358730775
 H    2.128178267110    0.460338261853   -0.486358730775
 C   -1.244918732890   -0.129697738147   -0.486358730775
 H   -2.196917732890    0.413023261853   -0.486358730775
 C   -0.028641732890    0.578084261853   -0.486358730775
 O    0.031905267110    1.958545261853   -0.486358730775
 H   -0.871225732890    2.306972261853   -0.486358730775
LI    0.271304909914    4.626152416486    6.519107697635
