14

 C   -0.011686945278   -2.242123411084   -0.499328296929
 H   -0.003964945278   -3.335298411084   -0.499328296929
 C    1.198789054722   -1.522284411084   -0.499328296929
 H    2.153808054722   -2.055983411084   -0.499328296929
 C   -1.231510945278   -1.542117411084   -0.499328296929
 H   -2.179642945278   -2.087929411084   -0.499328296929
 C    1.196381054722   -0.117139411084   -0.499328296929
 H    2.127735054722    0.455399588916   -0.499328296929
 C   -1.245361945278   -0.134636411084   -0.499328296929
 H   -2.197360945278    0.408084588916   -0.499328296929
 C   -0.029084945278    0.573145588916   -0.499328296929
 O    0.031462054722    1.953606588916   -0.499328296929
 H   -0.871668945278    2.302033588916   -0.499328296929
LI    0.277245688000    4.692349934338    6.692950569572
