14

 C   -0.011908551472   -2.244592747553   -0.505813080006
 H   -0.004186551472   -3.337767747553   -0.505813080006
 C    1.198567448528   -1.524753747553   -0.505813080006
 H    2.153586448528   -2.058452747553   -0.505813080006
 C   -1.231732551472   -1.544586747553   -0.505813080006
 H   -2.179864551472   -2.090398747553   -0.505813080006
 C    1.196159448528   -0.119608747553   -0.505813080006
 H    2.127513448528    0.452930252447   -0.505813080006
 C   -1.245583551472   -0.137105747553   -0.505813080006
 H   -2.197582551472    0.405615252447   -0.505813080006
 C   -0.029306551472    0.570676252447   -0.505813080006
 O    0.031240448528    1.951137252447   -0.505813080006
 H   -0.871890551472    2.299564252447   -0.505813080006
LI    0.280216077044    4.725448693265    6.779872005540
