14

 C   -0.012573370054   -2.252000756959   -0.525267429237
 H   -0.004851370054   -3.345175756959   -0.525267429237
 C    1.197902629946   -1.532161756959   -0.525267429237
 H    2.152921629946   -2.065860756959   -0.525267429237
 C   -1.232397370054   -1.551994756959   -0.525267429237
 H   -2.180529370054   -2.097806756959   -0.525267429237
 C    1.195494629946   -0.127016756959   -0.525267429237
 H    2.126848629946    0.445522243041   -0.525267429237
 C   -1.246248370054   -0.144513756959   -0.525267429237
 H   -2.198247370054    0.398207243041   -0.525267429237
 C   -0.029971370054    0.563268243041   -0.525267429237
 O    0.030575629946    1.943729243041   -0.525267429237
 H   -0.872555370054    2.292156243041   -0.525267429237
LI    0.289127244174    4.824744970043    7.040636313445
