14

 C   -0.013238188636   -2.259408766366   -0.544721778468
 H   -0.005516188636   -3.352583766366   -0.544721778468
 C    1.197237811364   -1.539569766366   -0.544721778468
 H    2.152256811364   -2.073268766366   -0.544721778468
 C   -1.233062188636   -1.559402766366   -0.544721778468
 H   -2.181194188636   -2.105214766366   -0.544721778468
 C    1.194829811364   -0.134424766366   -0.544721778468
 H    2.126183811364    0.438114233634   -0.544721778468
 C   -1.246913188636   -0.151921766366   -0.544721778468
 H   -2.198912188636    0.390799233634   -0.544721778468
 C   -0.030636188636    0.555860233634   -0.544721778468
 O    0.029910811364    1.936321233634   -0.544721778468
 H   -0.873220188636    2.284748233634   -0.544721778468
LI    0.298038411304    4.924041246822    7.301400621351
