14

 C   -0.013681401024   -2.264347439303   -0.557691344622
 H   -0.005959401024   -3.357522439303   -0.557691344622
 C    1.196794598976   -1.544508439303   -0.557691344622
 H    2.151813598976   -2.078207439303   -0.557691344622
 C   -1.233505401024   -1.564341439303   -0.557691344622
 H   -2.181637401024   -2.110153439303   -0.557691344622
 C    1.194386598976   -0.139363439303   -0.557691344622
 H    2.125740598976    0.433175560697   -0.557691344622
 C   -1.247356401024   -0.156860439303   -0.557691344622
 H   -2.199355401024    0.385860560697   -0.557691344622
 C   -0.031079401024    0.550921560697   -0.557691344622
 O    0.029467598976    1.931382560697   -0.557691344622
 H   -0.873663401024    2.279809560697   -0.557691344622
LI    0.303979189391    4.990238764675    7.475243493288
