14

 C   -0.013903007218   -2.266816775772   -0.564176127699
 H   -0.006181007218   -3.359991775772   -0.564176127699
 C    1.196572992782   -1.546977775772   -0.564176127699
 H    2.151591992782   -2.080676775772   -0.564176127699
 C   -1.233727007218   -1.566810775772   -0.564176127699
 H   -2.181859007218   -2.112622775772   -0.564176127699
 C    1.194164992782   -0.141832775772   -0.564176127699
 H    2.125518992782    0.430706224228   -0.564176127699
 C   -1.247578007218   -0.159329775772   -0.564176127699
 H   -2.199577007218    0.383391224228   -0.564176127699
 C   -0.031301007218    0.548452224228   -0.564176127699
 O    0.029245992782    1.928913224228   -0.564176127699
 H   -0.873885007218    2.277340224228   -0.564176127699
LI    0.306949578434    5.023337523601    7.562164929256
