14

 C   -0.014346219606   -2.271755448710   -0.577145693853
 H   -0.006624219606   -3.364930448710   -0.577145693853
 C    1.196129780394   -1.551916448710   -0.577145693853
 H    2.151148780394   -2.085615448710   -0.577145693853
 C   -1.234170219606   -1.571749448710   -0.577145693853
 H   -2.182302219606   -2.117561448710   -0.577145693853
 C    1.193721780394   -0.146771448710   -0.577145693853
 H    2.125075780394    0.425767551290   -0.577145693853
 C   -1.248021219606   -0.164268448710   -0.577145693853
 H   -2.200020219606    0.378452551290   -0.577145693853
 C   -0.031744219606    0.543513551290   -0.577145693853
 O    0.028802780394    1.923974551290   -0.577145693853
 H   -0.874328219606    2.272401551290   -0.577145693853
LI    0.312890356521    5.089535041454    7.736007801193
