14

 C   -0.014789431994   -2.276694121647   -0.590115260007
 H   -0.007067431994   -3.369869121647   -0.590115260007
 C    1.195686568006   -1.556855121647   -0.590115260007
 H    2.150705568006   -2.090554121647   -0.590115260007
 C   -1.234613431994   -1.576688121647   -0.590115260007
 H   -2.182745431994   -2.122500121647   -0.590115260007
 C    1.193278568006   -0.151710121647   -0.590115260007
 H    2.124632568006    0.420828878353   -0.590115260007
 C   -1.248464431994   -0.169207121647   -0.590115260007
 H   -2.200463431994    0.373513878353   -0.590115260007
 C   -0.032187431994    0.538574878353   -0.590115260007
 O    0.028359568006    1.919035878353   -0.590115260007
 H   -0.874771431994    2.267462878353   -0.590115260007
LI    0.318831134608    5.155732559307    7.909850673130
