14

 C   -0.016340675352   -2.293979476929   -0.635508741546
 H   -0.008618675352   -3.387154476929   -0.635508741546
 C    1.194135324648   -1.574140476929   -0.635508741546
 H    2.149154324648   -2.107839476929   -0.635508741546
 C   -1.236164675352   -1.593973476929   -0.635508741546
 H   -2.184296675352   -2.139785476929   -0.635508741546
 C    1.191727324648   -0.168995476929   -0.635508741546
 H    2.123081324648    0.403543523071   -0.635508741546
 C   -1.250015675352   -0.186492476929   -0.635508741546
 H   -2.202014675352    0.356228523071   -0.635508741546
 C   -0.033738675352    0.521289523071   -0.635508741546
 O    0.026808324648    1.901750523071   -0.635508741546
 H   -0.876322675352    2.250177523071   -0.635508741546
LI    0.339623857912    5.387423871791    8.518300724909
