7

 H   -0.954733099979    1.979647578262   -0.626742517940
 H    0.584825900021    2.070626578262    0.275504482060
 H    0.584825900021    2.070626578262   -1.528989517940
 C    0.101014900021    1.674106578262   -0.626742517940
 S    0.101014900021   -0.158619421738   -0.626742517940
 H    1.441597900021   -0.315010421738   -0.626742517940
RB   -0.071972493904   -0.245775164485    0.354317744251
