7

 H   -0.910528453631    2.001919078502   -0.877439525115
 H    0.629030546369    2.092898078502    0.024807474885
 H    0.629030546369    2.092898078502   -1.779686525115
 C    0.145219546369    1.696378078502   -0.877439525115
 S    0.145219546369   -0.136347921498   -0.877439525115
 H    1.485802546369   -0.292738921498   -0.877439525115
RB   -0.096962805126   -0.258365961344    0.496044841951
