7

 H   -0.888426130457    2.013054828623   -1.002788028703
 H    0.651132869543    2.104033828623   -0.100541028703
 H    0.651132869543    2.104033828623   -1.905035028703
 C    0.167321869543    1.707513828623   -1.002788028703
 S    0.167321869543   -0.125212171377   -1.002788028703
 H    1.507904869543   -0.281603171377   -1.002788028703
RB   -0.109457960737   -0.264661359774    0.566908390801
