7

 H    0.039871442850    2.480756333667   -6.267425179396
 H    1.579430442850    2.571735333667   -5.365178179396
 H    1.579430442850    2.571735333667   -7.169672179396
 C    1.095619442850    2.175215333667   -6.267425179396
 S    1.095619442850    0.342489333667   -6.267425179396
 H    2.436202442850    0.186098333667   -6.267425179396
RB   -0.634254496400   -0.529068093810    3.543177442508
