7

 H   -0.844221484109    2.035326328863   -1.253485035879
 H    0.695337515891    2.126305328863   -0.351238035879
 H    0.695337515891    2.126305328863   -2.155732035879
 C    0.211526515891    1.729785328863   -1.253485035879
 S    0.211526515891   -0.102940671137   -1.253485035879
 H    1.552109515891   -0.259331671137   -1.253485035879
RB   -0.134448271959   -0.277252156633    0.708635488502
