7

 H   -0.811067999348    2.052029954043   -1.441507791261
 H    0.728491000652    2.143008954043   -0.539260791261
 H    0.728491000652    2.143008954043   -2.343754791261
 C    0.244680000652    1.746488954043   -1.441507791261
 S    0.244680000652   -0.086237045957   -1.441507791261
 H    1.585263000652   -0.242628045957   -1.441507791261
RB   -0.153191005376   -0.286695254277    0.814930811777
