7

 H   -0.800016837761    2.057597829103   -1.504182043055
 H    0.739542162239    2.148576829103   -0.601935043055
 H    0.739542162239    2.148576829103   -2.406429043055
 C    0.255731162239    1.752056829103   -1.504182043055
 S    0.255731162239   -0.080669170897   -1.504182043055
 H    1.596314162239   -0.237060170897   -1.504182043055
RB   -0.159438583181   -0.289842953491    0.850362586202
