7

 H   -0.777914514587    2.068733579223   -1.629530546643
 H    0.761644485413    2.159712579223   -0.727283546643
 H    0.761644485413    2.159712579223   -2.531777546643
 C    0.277833485413    1.763192579223   -1.629530546643
 S    0.277833485413   -0.069533420777   -1.629530546643
 H    1.618416485413   -0.225924420777   -1.629530546643
RB   -0.171933738792   -0.296138351921    0.921226135052
