7

 H   -0.755812191413    2.079869329343   -1.754879050231
 H    0.783746808587    2.170848329343   -0.852632050231
 H    0.783746808587    2.170848329343   -2.657126050231
 C    0.299935808587    1.774328329343   -1.754879050231
 S    0.299935808587   -0.058397670657   -1.754879050231
 H    1.640518808587   -0.214788670657   -1.754879050231
RB   -0.184428894403   -0.302433750350    0.992089683902
