7

 H   -0.722658706652    2.096572954523   -1.942901805613
 H    0.816900293348    2.187551954523   -1.040654805613
 H    0.816900293348    2.187551954523   -2.845148805613
 C    0.333089293348    1.791031954523   -1.942901805613
 S    0.333089293348   -0.041694045477   -1.942901805613
 H    1.673672293348   -0.198085045477   -1.942901805613
RB   -0.203171627820   -0.311876847994    1.098385007178
