7

 H   -0.711607545065    2.102140829583   -2.005576057407
 H    0.827951454935    2.193119829583   -1.103329057407
 H    0.827951454935    2.193119829583   -2.907823057407
 C    0.344140454935    1.796599829583   -2.005576057407
 S    0.344140454935   -0.036126170417   -2.005576057407
 H    1.684723454935   -0.192517170417   -2.005576057407
RB   -0.209419205625   -0.315024547209    1.133816781603
