7

 H   -0.689505221891    2.113276579703   -2.130924560995
 H    0.850053778109    2.204255579703   -1.228677560995
 H    0.850053778109    2.204255579703   -3.033171560995
 C    0.366242778109    1.807735579703   -2.130924560995
 S    0.366242778109   -0.024990420297   -2.130924560995
 H    1.706825778109   -0.181381420297   -2.130924560995
RB   -0.221914361236   -0.321319945639    1.204680330453
