7

 H   -0.678454060304    2.118844454764   -2.193598812789
 H    0.861104939696    2.209823454764   -1.291351812789
 H    0.861104939696    2.209823454764   -3.095845812789
 C    0.377293939696    1.813303454764   -2.193598812789
 S    0.377293939696   -0.019422545236   -2.193598812789
 H    1.717876939696   -0.175813545236   -2.193598812789
RB   -0.228161939042   -0.324467644853    1.240112104878
