7

 H   -0.623198252369    2.146683830064   -2.506970071758
 H    0.916360747631    2.237662830064   -1.604723071758
 H    0.916360747631    2.237662830064   -3.409217071758
 C    0.432549747631    1.841142830064   -2.506970071758
 S    0.432549747631    0.008416830064   -2.506970071758
 H    1.773132747631   -0.147974169936   -2.506970071758
RB   -0.259399828069   -0.340206140927    1.417270977003
