7

 H   -0.612147090782    2.152251705124   -2.569644323552
 H    0.927411909218    2.243230705124   -1.667397323552
 H    0.927411909218    2.243230705124   -3.471891323552
 C    0.443600909218    1.846710705124   -2.569644323552
 S    0.443600909218    0.013984705124   -2.569644323552
 H    1.784183909218   -0.142406294876   -2.569644323552
RB   -0.265647405875   -0.343353840142    1.452702751428
