7

 H   -0.578993606021    2.168955330304   -2.757667078934
 H    0.960565393979    2.259934330304   -1.855420078934
 H    0.960565393979    2.259934330304   -3.659914078934
 C    0.476754393979    1.863414330304   -2.757667078934
 S    0.476754393979    0.030688330304   -2.757667078934
 H    1.817337393979   -0.125702669696   -2.757667078934
RB   -0.284390139291   -0.352796937786    1.558998074704
