7

 H   -0.567942444434    2.174523205364   -2.820341330728
 H    0.971616555566    2.265502205364   -1.918094330728
 H    0.971616555566    2.265502205364   -3.722588330728
 C    0.487805555566    1.868982205364   -2.820341330728
 S    0.487805555566    0.036256205364   -2.820341330728
 H    1.828388555566   -0.120134794636   -2.820341330728
RB   -0.290637717097   -0.355944637000    1.594429849129
