7

 H   -0.556891282847    2.180091080424   -2.883015582522
 H    0.982667717153    2.271070080424   -1.980768582522
 H    0.982667717153    2.271070080424   -3.785262582522
 C    0.498856717153    1.874550080424   -2.883015582522
 S    0.498856717153    0.041824080424   -2.883015582522
 H    1.839439717153   -0.114566919576   -2.883015582522
RB   -0.296885294903   -0.359092336215    1.629861623554
