7

 H   -0.545840121260    2.185658955484   -2.945689834316
 H    0.993718878740    2.276637955484   -2.043442834316
 H    0.993718878740    2.276637955484   -3.847936834316
 C    0.509907878740    1.880117955484   -2.945689834316
 S    0.509907878740    0.047391955484   -2.945689834316
 H    1.850490878740   -0.108999044516   -2.945689834316
RB   -0.303132872708   -0.362240035430    1.665293397979
