7

 H   -0.490584313325    2.213498330784   -3.259061093286
 H    1.048974686675    2.304477330784   -2.356814093286
 H    1.048974686675    2.304477330784   -4.161308093286
 C    0.565163686675    1.907957330784   -3.259061093286
 S    0.565163686675    0.075231330784   -3.259061093286
 H    1.905746686675   -0.081159669216   -3.259061093286
RB   -0.334370761736   -0.377978531503    1.842452270104
