7

 H   -0.413226182216    2.252473456205   -3.697780855844
 H    1.126332817784    2.343452456205   -2.795533855844
 H    1.126332817784    2.343452456205   -4.600027855844
 C    0.642521817784    1.946932456205   -3.697780855844
 S    0.642521817784    0.114206456205   -3.697780855844
 H    1.983104817784   -0.042184543795   -3.697780855844
RB   -0.378103806374   -0.400012426006    2.090474691080
