7

 H   -0.380072697455    2.269177081385   -3.885803611225
 H    1.159486302545    2.360156081385   -2.983556611225
 H    1.159486302545    2.360156081385   -4.788050611225
 C    0.675675302545    1.963636081385   -3.885803611225
 S    0.675675302545    0.130910081385   -3.885803611225
 H    2.016258302545   -0.025480918615   -3.885803611225
RB   -0.396846539791   -0.409455523651    2.196770014355
