7

 H   -0.369021535868    2.274744956445   -3.948477863019
 H    1.170537464132    2.365723956445   -3.046230863019
 H    1.170537464132    2.365723956445   -4.850724863019
 C    0.686726464132    1.969203956445   -3.948477863019
 S    0.686726464132    0.136477956445   -3.948477863019
 H    2.027309464132   -0.019913043555   -3.948477863019
RB   -0.403094117596   -0.412603222865    2.232201788780
