7

 H   -0.357970374281    2.280312831505   -4.011152114813
 H    1.181588625719    2.371291831505   -3.108905114813
 H    1.181588625719    2.371291831505   -4.913399114813
 C    0.697777625719    1.974771831505   -4.011152114813
 S    0.697777625719    0.142045831505   -4.011152114813
 H    2.038360625719   -0.014345168495   -4.011152114813
RB   -0.409341695402   -0.415750922080    2.267633563205
