7

 H   -0.346919212694    2.285880706565   -4.073826366607
 H    1.192639787306    2.376859706565   -3.171579366607
 H    1.192639787306    2.376859706565   -4.976073366607
 C    0.708828787306    1.980339706565   -4.073826366607
 S    0.708828787306    0.147613706565   -4.073826366607
 H    2.049411787306   -0.008777293435   -4.073826366607
RB   -0.415589273207   -0.418898621295    2.303065337630
