7

 H   -0.324816889520    2.297016456685   -4.199174870195
 H    1.214742110480    2.387995456685   -3.296927870195
 H    1.214742110480    2.387995456685   -5.101421870195
 C    0.730931110480    1.991475456685   -4.199174870195
 S    0.730931110480    0.158749456685   -4.199174870195
 H    2.071514110480    0.002358456685   -4.199174870195
RB   -0.428084428818   -0.425194019724    2.373928886480
