7

 H   -0.258509919998    2.330423707045   -4.575220380959
 H    1.281049080002    2.421402707045   -3.672973380959
 H    1.281049080002    2.421402707045   -5.477467380959
 C    0.797238080002    2.024882707045   -4.575220380959
 S    0.797238080002    0.192156707045   -4.575220380959
 H    2.137821080002    0.035765707045   -4.575220380959
RB   -0.465569895652   -0.444080215012    2.586519533031
