7

 H   -0.247458758411    2.335991582105   -4.637894632753
 H    1.292100241589    2.426970582105   -3.735647632753
 H    1.292100241589    2.426970582105   -5.540141632753
 C    0.808289241589    2.030450582105   -4.637894632753
 S    0.808289241589    0.197724582105   -4.637894632753
 H    2.148872241589    0.041333582105   -4.637894632753
RB   -0.471817473457   -0.447227914227    2.621951307456
