7

 H   -0.181151788889    2.369398832466   -5.013940143517
 H    1.358407211111    2.460377832466   -4.111693143517
 H    1.358407211111    2.460377832466   -5.916187143517
 C    0.874596211111    2.063857832466   -5.013940143517
 S    0.874596211111    0.231131832466   -5.013940143517
 H    2.215179211111    0.074740832466   -5.013940143517
RB   -0.509302940290   -0.466114109515    2.834541954007
