7

 H   -0.147998304128    2.386102457646   -5.201962898899
 H    1.391560695872    2.477081457646   -4.299715898899
 H    1.391560695872    2.477081457646   -6.104209898899
 C    0.907749695872    2.080561457646   -5.201962898899
 S    0.907749695872    0.247835457646   -5.201962898899
 H    2.248332695872    0.091444457646   -5.201962898899
RB   -0.528045673707   -0.475557207160    2.940837277282
