7

 H   -0.092742496193    2.413941832946   -5.515334157868
 H    1.446816503807    2.504920832946   -4.613087157868
 H    1.446816503807    2.504920832946   -6.417581157868
 C    0.963005503807    2.108400832946   -5.515334157868
 S    0.963005503807    0.275674832946   -5.515334157868
 H    2.303588503807    0.119283832946   -5.515334157868
RB   -0.559283562734   -0.491295703233    3.117996149407
