7

 H   -0.081691334606    2.419509708006   -5.578008409662
 H    1.457867665394    2.510488708006   -4.675761409662
 H    1.457867665394    2.510488708006   -6.480255409662
 C    0.974056665394    2.113968708006   -5.578008409662
 S    0.974056665394    0.281242708006   -5.578008409662
 H    2.314639665394    0.124851708006   -5.578008409662
RB   -0.565531140540   -0.494443402448    3.153427923832
