7

 H   -0.026435526672    2.447349083307   -5.891379668632
 H    1.513123473328    2.538328083307   -4.989132668632
 H    1.513123473328    2.538328083307   -6.793626668632
 C    1.029312473328    2.141808083307   -5.891379668632
 S    1.029312473328    0.309082083307   -5.891379668632
 H    2.369895473328    0.152691083307   -5.891379668632
RB   -0.596769029567   -0.510181898521    3.330586795958
