7

 H   -0.015384365085    2.452916958367   -5.954053920426
 H    1.524174634915    2.543895958367   -5.051806920426
 H    1.524174634915    2.543895958367   -6.856300920426
 C    1.040363634915    2.147375958367   -5.954053920426
 S    1.040363634915    0.314649958367   -5.954053920426
 H    2.380946634915    0.158258958367   -5.954053920426
RB   -0.603016607373   -0.513329597736    3.366018570383
