13

 C    1.434373994465    1.508092722818    0.286146000356
 H    1.468893994465    2.608944722818    0.286146000356
 H    1.958956994465    1.138947722818    1.179765000356
 H    1.958956994465    1.138947722818   -0.607472999644
 C   -0.008406005535    1.031041722818    0.286146000356
 H   -0.547580005535    1.402194722818   -0.608619999644
 H   -0.547580005535    1.402194722818    1.180912000356
 O   -0.007841005535   -0.397465277182    0.286146000356
 C   -1.337428005535   -0.907872277182    0.286146000356
 H   -1.890811005535   -0.577093277182   -0.612986999644
 H   -1.890811005535   -0.577093277182    1.185279000356
 H   -1.264345005535   -2.003347277182    0.286146000356
NA   -0.007692202972   -0.773687405413   -0.747515882508
