13

 C    1.434366504895    1.527028835298    0.338172545875
 H    1.468886504895    2.627880835298    0.338172545875
 H    1.958949504895    1.157883835298    1.231791545875
 H    1.958949504895    1.157883835298   -0.555446454125
 C   -0.008413495105    1.049977835298    0.338172545875
 H   -0.547587495105    1.421130835298   -0.556593454125
 H   -0.547587495105    1.421130835298    1.232938545875
 O   -0.007848495105   -0.378529164702    0.338172545875
 C   -1.337435495105   -0.888936164702    0.338172545875
 H   -1.890818495105   -0.558157164702   -0.560960454125
 H   -1.890818495105   -0.558157164702    1.237305545875
 H   -1.264352495105   -1.984411164702    0.338172545875
NA   -0.007672637531   -0.823155316248   -0.883427861146
