13

 C    1.434351525755    1.564901060257    0.442225636914
 H    1.468871525755    2.665753060257    0.442225636914
 H    1.958934525755    1.195756060257    1.335844636914
 H    1.958934525755    1.195756060257   -0.451393363086
 C   -0.008428474245    1.087850060257    0.442225636914
 H   -0.547602474245    1.459003060257   -0.452540363086
 H   -0.547602474245    1.459003060257    1.336991636914
 O   -0.007863474245   -0.340656939743    0.442225636914
 C   -1.337450474245   -0.851063939743    0.442225636914
 H   -1.890833474245   -0.520284939743   -0.456907363086
 H   -1.890833474245   -0.520284939743    1.341358636914
 H   -1.264367474245   -1.946538939743    0.442225636914
NA   -0.007633506648   -0.922091137919   -1.155251818422
