13

 C    1.434347780970    1.574369116497    0.468238909674
 H    1.468867780970    2.675221116497    0.468238909674
 H    1.958930780970    1.205224116497    1.361857909674
 H    1.958930780970    1.205224116497   -0.425380090326
 C   -0.008432219030    1.097318116497    0.468238909674
 H   -0.547606219030    1.468471116497   -0.426527090326
 H   -0.547606219030    1.468471116497    1.363004909674
 O   -0.007867219030   -0.331188883503    0.468238909674
 C   -1.337454219030   -0.841595883503    0.468238909674
 H   -1.890837219030   -0.510816883503   -0.430894090326
 H   -1.890837219030   -0.510816883503    1.367371909674
 H   -1.264371219030   -1.937070883503    0.468238909674
NA   -0.007623723928   -0.946825093336   -1.223207807741
