13

 C    1.434321567474    1.640645510175    0.650331818991
 H    1.468841567474    2.741497510175    0.650331818991
 H    1.958904567474    1.271500510175    1.543950818991
 H    1.958904567474    1.271500510175   -0.243287181009
 C   -0.008458432526    1.163594510175    0.650331818991
 H   -0.547632432526    1.534747510175   -0.244434181009
 H   -0.547632432526    1.534747510175    1.545097818991
 O   -0.007893432526   -0.264912489825    0.650331818991
 C   -1.337480432526   -0.775319489825    0.650331818991
 H   -1.890863432526   -0.444540489825   -0.248801181009
 H   -1.890863432526   -0.444540489825    1.549464818991
 H   -1.264397432526   -1.870794489825    0.650331818991
NA   -0.007555244884   -1.119962781259   -1.698899732974
