13

 C    1.434317822688    1.650113566415    0.676345091751
 H    1.468837822688    2.750965566415    0.676345091751
 H    1.958900822688    1.280968566415    1.569964091751
 H    1.958900822688    1.280968566415   -0.217273908249
 C   -0.008462177312    1.173062566415    0.676345091751
 H   -0.547636177312    1.544215566415   -0.218420908249
 H   -0.547636177312    1.544215566415    1.571111091751
 O   -0.007897177312   -0.255444433585    0.676345091751
 C   -1.337484177312   -0.765851433585    0.676345091751
 H   -1.890867177312   -0.435072433585   -0.222787908249
 H   -1.890867177312   -0.435072433585    1.575478091751
 H   -1.264401177312   -1.861326433585    0.676345091751
NA   -0.007545462163   -1.144696736677   -1.766855722293
