13

 C    1.434306588333    1.678517735134    0.754384910030
 H    1.468826588333    2.779369735134    0.754384910030
 H    1.958889588333    1.309372735134    1.648003910030
 H    1.958889588333    1.309372735134   -0.139234089970
 C   -0.008473411667    1.201466735134    0.754384910030
 H   -0.547647411667    1.572619735134   -0.140381089970
 H   -0.547647411667    1.572619735134    1.649150910030
 O   -0.007908411667   -0.227040264866    0.754384910030
 C   -1.337495411667   -0.737447264866    0.754384910030
 H   -1.890878411667   -0.406668264866   -0.144748089970
 H   -1.890878411667   -0.406668264866    1.653517910030
 H   -1.264412411667   -1.832922264866    0.754384910030
NA   -0.007516114002   -1.218898602930   -1.970723690249
