13

 C    1.434276630052    1.754262185053    0.962491092107
 H    1.468796630052    2.855114185053    0.962491092107
 H    1.958859630052    1.385117185053    1.856110092107
 H    1.958859630052    1.385117185053    0.068872092107
 C   -0.008503369948    1.277211185053    0.962491092107
 H   -0.547677369948    1.648364185053    0.067725092107
 H   -0.547677369948    1.648364185053    1.857257092107
 O   -0.007938369948   -0.151295814947    0.962491092107
 C   -1.337525369948   -0.661702814947    0.962491092107
 H   -1.890908369948   -0.330923814947    0.063358092107
 H   -1.890908369948   -0.330923814947    1.861624092107
 H   -1.264442369948   -1.757177814947    0.962491092107
NA   -0.007437852237   -1.416770246271   -2.514371604801
