13

 C    1.434269140482    1.773198297532    1.014517637626
 H    1.468789140482    2.874050297532    1.014517637626
 H    1.958852140482    1.404053297532    1.908136637626
 H    1.958852140482    1.404053297532    0.120898637626
 C   -0.008510859518    1.296147297532    1.014517637626
 H   -0.547684859518    1.667300297532    0.119751637626
 H   -0.547684859518    1.667300297532    1.909283637626
 O   -0.007945859518   -0.132359702468    1.014517637626
 C   -1.337532859518   -0.642766702468    1.014517637626
 H   -1.890915859518   -0.311987702468    0.115384637626
 H   -1.890915859518   -0.311987702468    1.913650637626
 H   -1.264449859518   -1.738241702468    1.014517637626
NA   -0.007418286796   -1.466238157106   -2.650283583439
