13

 C    1.434265395697    1.782666353772    1.040530910386
 H    1.468785395697    2.883518353772    1.040530910386
 H    1.958848395697    1.413521353772    1.934149910386
 H    1.958848395697    1.413521353772    0.146911910386
 C   -0.008514604303    1.305615353772    1.040530910386
 H   -0.547688604303    1.676768353772    0.145764910386
 H   -0.547688604303    1.676768353772    1.935296910386
 O   -0.007949604303   -0.122891646228    1.040530910386
 C   -1.337536604303   -0.633298646228    1.040530910386
 H   -1.890919604303   -0.302519646228    0.141397910386
 H   -1.890919604303   -0.302519646228    1.939663910386
 H   -1.264453604303   -1.728773646228    1.040530910386
NA   -0.007408504075   -1.490972112523   -2.718239572758
