13

 C    1.434257906126    1.801602466252    1.092557455905
 H    1.468777906126    2.902454466252    1.092557455905
 H    1.958840906126    1.432457466252    1.986176455905
 H    1.958840906126    1.432457466252    0.198938455905
 C   -0.008522093874    1.324551466252    1.092557455905
 H   -0.547696093874    1.695704466252    0.197791455905
 H   -0.547696093874    1.695704466252    1.987323455905
 O   -0.007957093874   -0.103955533748    1.092557455905
 C   -1.337544093874   -0.614362533748    1.092557455905
 H   -1.890927093874   -0.283583533748    0.193424455905
 H   -1.890927093874   -0.283583533748    1.991690455905
 H   -1.264461093874   -1.709837533748    1.092557455905
NA   -0.007388938634   -1.540440023358   -2.854151551396
