13

 C    1.434239182201    1.848942747451    1.222623819703
 H    1.468759182201    2.949794747451    1.222623819703
 H    1.958822182201    1.479797747451    2.116242819703
 H    1.958822182201    1.479797747451    0.329004819703
 C   -0.008540817799    1.371891747451    1.222623819703
 H   -0.547714817799    1.743044747451    0.327857819703
 H   -0.547714817799    1.743044747451    2.117389819703
 O   -0.007975817799   -0.056615252549    1.222623819703
 C   -1.337562817799   -0.567022252549    1.222623819703
 H   -1.890945817799   -0.236243252549    0.323490819703
 H   -1.890945817799   -0.236243252549    2.121756819703
 H   -1.264479817799   -1.662497252549    1.222623819703
NA   -0.007340025031   -1.664109800446   -3.193931497990
