13

 C    1.434224203060    1.886814972410    1.326676910742
 H    1.468744203060    2.987666972410    1.326676910742
 H    1.958807203060    1.517669972410    2.220295910742
 H    1.958807203060    1.517669972410    0.433057910742
 C   -0.008555796940    1.409763972410    1.326676910742
 H   -0.547729796940    1.780916972410    0.431910910742
 H   -0.547729796940    1.780916972410    2.221442910742
 O   -0.007990796940   -0.018743027590    1.326676910742
 C   -1.337577796940   -0.529150027590    1.326676910742
 H   -1.890960796940   -0.198371027590    0.427543910742
 H   -1.890960796940   -0.198371027590    2.225809910742
 H   -1.264494796940   -1.624625027590    1.326676910742
NA   -0.007300894149   -1.763045622117   -3.465755455266
