13

 C    1.434212968705    1.915219141129    1.404716729021
 H    1.468732968705    3.016071141129    1.404716729021
 H    1.958795968705    1.546074141129    2.298335729021
 H    1.958795968705    1.546074141129    0.511097729021
 C   -0.008567031295    1.438168141129    1.404716729021
 H   -0.547741031295    1.809321141129    0.509950729021
 H   -0.547741031295    1.809321141129    2.299482729021
 O   -0.008002031295    0.009661141129    1.404716729021
 C   -1.337589031295   -0.500745858871    1.404716729021
 H   -1.890972031295   -0.169966858871    0.505583729021
 H   -1.890972031295   -0.169966858871    2.303849729021
 H   -1.264506031295   -1.596220858871    1.404716729021
NA   -0.007271545987   -1.837247488370   -3.669623423223
