13

 C    1.434209223920    1.924687197369    1.430730001781
 H    1.468729223920    3.025539197369    1.430730001781
 H    1.958792223920    1.555542197369    2.324349001781
 H    1.958792223920    1.555542197369    0.537111001781
 C   -0.008570776080    1.447636197369    1.430730001781
 H   -0.547744776080    1.818789197369    0.535964001781
 H   -0.547744776080    1.818789197369    2.325496001781
 O   -0.008005776080    0.019129197369    1.430730001781
 C   -1.337592776080   -0.491277802631    1.430730001781
 H   -1.890975776080   -0.160498802631    0.531597001781
 H   -1.890975776080   -0.160498802631    2.329863001781
 H   -1.264509776080   -1.586752802631    1.430730001781
NA   -0.007261763267   -1.861981443787   -3.737579412542
