13

 C    1.434197989564    1.953091366088    1.508769820059
 H    1.468717989564    3.053943366088    1.508769820059
 H    1.958780989564    1.583946366088    2.402388820059
 H    1.958780989564    1.583946366088    0.615150820059
 C   -0.008582010436    1.476040366088    1.508769820059
 H   -0.547756010436    1.847193366088    0.614003820059
 H   -0.547756010436    1.847193366088    2.403535820059
 O   -0.008017010436    0.047533366088    1.508769820059
 C   -1.337604010436   -0.462873633912    1.508769820059
 H   -1.890987010436   -0.132094633912    0.609636820059
 H   -1.890987010436   -0.132094633912    2.407902820059
 H   -1.264521010436   -1.558348633912    1.508769820059
NA   -0.007232415105   -1.936183310040   -3.941447380499
