13

 C    1.434194244779    1.962559422328    1.534783092819
 H    1.468714244779    3.063411422328    1.534783092819
 H    1.958777244779    1.593414422328    2.428402092819
 H    1.958777244779    1.593414422328    0.641164092819
 C   -0.008585755221    1.485508422328    1.534783092819
 H   -0.547759755221    1.856661422328    0.640017092819
 H   -0.547759755221    1.856661422328    2.429549092819
 O   -0.008020755221    0.057001422328    1.534783092819
 C   -1.337607755221   -0.453405577672    1.534783092819
 H   -1.890990755221   -0.122626577672    0.635650092819
 H   -1.890990755221   -0.122626577672    2.433916092819
 H   -1.264524755221   -1.548880577672    1.534783092819
NA   -0.007222632385   -1.960917265457   -4.009403369818
