13

 C    1.434183010424    1.990963591047    1.612822911098
 H    1.468703010424    3.091815591047    1.612822911098
 H    1.958766010424    1.621818591047    2.506441911098
 H    1.958766010424    1.621818591047    0.719203911098
 C   -0.008596989576    1.513912591047    1.612822911098
 H   -0.547770989576    1.885065591047    0.718056911098
 H   -0.547770989576    1.885065591047    2.507588911098
 O   -0.008031989576    0.085405591047    1.612822911098
 C   -1.337618989576   -0.425001408953    1.612822911098
 H   -1.891001989576   -0.094222408953    0.713689911098
 H   -1.891001989576   -0.094222408953    2.511955911098
 H   -1.264535989576   -1.520476408953    1.612822911098
NA   -0.007193284223   -2.035119131710   -4.213271337775
