13

 C    1.434171776068    2.019367759767    1.690862729377
 H    1.468691776068    3.120219759767    1.690862729377
 H    1.958754776068    1.650222759767    2.584481729377
 H    1.958754776068    1.650222759767    0.797243729377
 C   -0.008608223932    1.542316759767    1.690862729377
 H   -0.547782223932    1.913469759767    0.796096729377
 H   -0.547782223932    1.913469759767    2.585628729377
 O   -0.008043223932    0.113809759767    1.690862729377
 C   -1.337630223932   -0.396597240233    1.690862729377
 H   -1.891013223932   -0.065818240233    0.791729729377
 H   -1.891013223932   -0.065818240233    2.589995729377
 H   -1.264547223932   -1.492072240233    1.690862729377
NA   -0.007163936061   -2.109320997963   -4.417139305731
