13

 C    1.434149307358    2.076176097206    1.846942365935
 H    1.468669307358    3.177028097206    1.846942365935
 H    1.958732307358    1.707031097206    2.740561365935
 H    1.958732307358    1.707031097206    0.953323365935
 C   -0.008630692642    1.599125097206    1.846942365935
 H   -0.547804692642    1.970278097206    0.952176365935
 H   -0.547804692642    1.970278097206    2.741708365935
 O   -0.008065692642    0.170618097206    1.846942365935
 C   -1.337652692642   -0.339788902794    1.846942365935
 H   -1.891035692642   -0.009009902794    0.947809365935
 H   -1.891035692642   -0.009009902794    2.746075365935
 H   -1.264569692642   -1.435263902794    1.846942365935
NA   -0.007105239738   -2.257724730468   -4.824875241645
