13

 C    1.434141817787    2.095112209685    1.898968911454
 H    1.468661817787    3.195964209685    1.898968911454
 H    1.958724817787    1.725967209685    2.792587911454
 H    1.958724817787    1.725967209685    1.005349911454
 C   -0.008638182213    1.618061209685    1.898968911454
 H   -0.547812182213    1.989214209685    1.004202911454
 H   -0.547812182213    1.989214209685    2.793734911454
 O   -0.008073182213    0.189554209685    1.898968911454
 C   -1.337660182213   -0.320852790315    1.898968911454
 H   -1.891043182213    0.009926209685    0.999835911454
 H   -1.891043182213    0.009926209685    2.798101911454
 H   -1.264577182213   -1.416327790315    1.898968911454
NA   -0.007085674297   -2.307192641304   -4.960787220283
