13

 C    1.434138073002    2.104580265925    1.924982184214
 H    1.468658073002    3.205432265925    1.924982184214
 H    1.958721073002    1.735435265925    2.818601184214
 H    1.958721073002    1.735435265925    1.031363184214
 C   -0.008641926998    1.627529265925    1.924982184214
 H   -0.547815926998    1.998682265925    1.030216184214
 H   -0.547815926998    1.998682265925    2.819748184214
 O   -0.008076926998    0.199022265925    1.924982184214
 C   -1.337663926998   -0.311384734075    1.924982184214
 H   -1.891046926998    0.019394265925    1.025849184214
 H   -1.891046926998    0.019394265925    2.824115184214
 H   -1.264580926998   -1.406859734075    1.924982184214
NA   -0.007075891576   -2.331926596721   -5.028743209602
