13

 C    1.434108114721    2.180324715843    2.133088366291
 H    1.468628114721    3.281176715843    2.133088366291
 H    1.958691114721    1.811179715843    3.026707366291
 H    1.958691114721    1.811179715843    1.239469366291
 C   -0.008671885279    1.703273715843    2.133088366291
 H   -0.547845885279    2.074426715843    1.238322366291
 H   -0.547845885279    2.074426715843    3.027854366291
 O   -0.008106885279    0.274766715843    2.133088366291
 C   -1.337693885279   -0.235640284157    2.133088366291
 H   -1.891076885279    0.095138715843    1.233955366291
 H   -1.891076885279    0.095138715843    3.032221366291
 H   -1.264610885279   -1.331115284157    2.133088366291
NA   -0.006997629811   -2.529798240062   -5.572391124153
