13

 C    1.434104369936    2.189792772083    2.159101639051
 H    1.468624369936    3.290644772083    2.159101639051
 H    1.958687369936    1.820647772083    3.052720639051
 H    1.958687369936    1.820647772083    1.265482639051
 C   -0.008675630064    1.712741772083    2.159101639051
 H   -0.547849630064    2.083894772083    1.264335639051
 H   -0.547849630064    2.083894772083    3.053867639051
 O   -0.008110630064    0.284234772083    2.159101639051
 C   -1.337697630064   -0.226172227917    2.159101639051
 H   -1.891080630064    0.104606772083    1.259968639051
 H   -1.891080630064    0.104606772083    3.058234639051
 H   -1.264614630064   -1.321647227917    2.159101639051
NA   -0.006987847091   -2.554532195480   -5.640347113472
