13

 C    1.434100625151    2.199260828323    2.185114911810
 H    1.468620625151    3.300112828323    2.185114911810
 H    1.958683625151    1.830115828323    3.078733911810
 H    1.958683625151    1.830115828323    1.291495911810
 C   -0.008679374849    1.722209828323    2.185114911810
 H   -0.547853374849    2.093362828323    1.290348911810
 H   -0.547853374849    2.093362828323    3.079880911810
 O   -0.008114374849    0.293702828323    2.185114911810
 C   -1.337701374849   -0.216704171677    2.185114911810
 H   -1.891084374849    0.114074828323    1.285981911810
 H   -1.891084374849    0.114074828323    3.084247911810
 H   -1.264618374849   -1.312179171677    2.185114911810
NA   -0.006978064370   -2.579266150897   -5.708303102791
