13

 C    1.434096880366    2.208728884563    2.211128184570
 H    1.468616880366    3.309580884563    2.211128184570
 H    1.958679880366    1.839583884563    3.104747184570
 H    1.958679880366    1.839583884563    1.317509184570
 C   -0.008683119634    1.731677884563    2.211128184570
 H   -0.547857119634    2.102830884563    1.316362184570
 H   -0.547857119634    2.102830884563    3.105894184570
 O   -0.008118119634    0.303170884563    2.211128184570
 C   -1.337705119634   -0.207236115437    2.211128184570
 H   -1.891088119634    0.123542884563    1.311995184570
 H   -1.891088119634    0.123542884563    3.110261184570
 H   -1.264622119634   -1.302711115437    2.211128184570
NA   -0.006968281650   -2.604000106315   -5.776259092110
