13

 C    1.434093135581    2.218196940803    2.237141457330
 H    1.468613135581    3.319048940803    2.237141457330
 H    1.958676135581    1.849051940803    3.130760457330
 H    1.958676135581    1.849051940803    1.343522457330
 C   -0.008686864419    1.741145940803    2.237141457330
 H   -0.547860864419    2.112298940803    1.342375457330
 H   -0.547860864419    2.112298940803    3.131907457330
 O   -0.008121864419    0.312638940803    2.237141457330
 C   -1.337708864419   -0.197768059197    2.237141457330
 H   -1.891091864419    0.133010940803    1.338008457330
 H   -1.891091864419    0.133010940803    3.136274457330
 H   -1.264625864419   -1.293243059197    2.237141457330
NA   -0.006958498929   -2.628734061732   -5.844215081429
