13

 C    1.434085646010    2.237133053282    2.289168002849
 H    1.468605646010    3.337985053282    2.289168002849
 H    1.958668646010    1.867988053282    3.182787002849
 H    1.958668646010    1.867988053282    1.395549002849
 C   -0.008694353990    1.760082053282    2.289168002849
 H   -0.547868353990    2.131235053282    1.394402002849
 H   -0.547868353990    2.131235053282    3.183934002849
 O   -0.008129353990    0.331575053282    2.289168002849
 C   -1.337716353990   -0.178831946718    2.289168002849
 H   -1.891099353990    0.151947053282    1.390035002849
 H   -1.891099353990    0.151947053282    3.188301002849
 H   -1.264633353990   -1.274306946718    2.289168002849
NA   -0.006938933488   -2.678201972567   -5.980127060067
