13

 C    1.434078156440    2.256069165762    2.341194548368
 H    1.468598156440    3.356921165762    2.341194548368
 H    1.958661156440    1.886924165762    3.234813548368
 H    1.958661156440    1.886924165762    1.447575548368
 C   -0.008701843560    1.779018165762    2.341194548368
 H   -0.547875843560    2.150171165762    1.446428548368
 H   -0.547875843560    2.150171165762    3.235960548368
 O   -0.008136843560    0.350511165762    2.341194548368
 C   -1.337723843560   -0.159895834238    2.341194548368
 H   -1.891106843560    0.170883165762    1.442061548368
 H   -1.891106843560    0.170883165762    3.240327548368
 H   -1.264640843560   -1.255370834238    2.341194548368
NA   -0.006919368047   -2.727669883403   -6.116039038705
