13

 C    1.434070666870    2.275005278241    2.393221093887
 H    1.468590666870    3.375857278241    2.393221093887
 H    1.958653666870    1.905860278241    3.286840093887
 H    1.958653666870    1.905860278241    1.499602093887
 C   -0.008709333130    1.797954278241    2.393221093887
 H   -0.547883333130    2.169107278241    1.498455093887
 H   -0.547883333130    2.169107278241    3.287987093887
 O   -0.008144333130    0.369447278241    2.393221093887
 C   -1.337731333130   -0.140959721759    2.393221093887
 H   -1.891114333130    0.189819278241    1.494088093887
 H   -1.891114333130    0.189819278241    3.292354093887
 H   -1.264648333130   -1.236434721759    2.393221093887
NA   -0.006899802606   -2.777137794238   -6.251951017343
