13

 C    1.434066922085    2.284473334481    2.419234366647
 H    1.468586922085    3.385325334481    2.419234366647
 H    1.958649922085    1.915328334481    3.312853366647
 H    1.958649922085    1.915328334481    1.525615366647
 C   -0.008713077915    1.807422334481    2.419234366647
 H   -0.547887077915    2.178575334481    1.524468366647
 H   -0.547887077915    2.178575334481    3.314000366647
 O   -0.008148077915    0.378915334481    2.419234366647
 C   -1.337735077915   -0.131491665519    2.419234366647
 H   -1.891118077915    0.199287334481    1.520101366647
 H   -1.891118077915    0.199287334481    3.318367366647
 H   -1.264652077915   -1.226966665519    2.419234366647
NA   -0.006890019885   -2.801871749655   -6.319907006662
