13

 C    1.434055687729    2.312877503200    2.497274184926
 H    1.468575687729    3.413729503200    2.497274184926
 H    1.958638687729    1.943732503200    3.390893184926
 H    1.958638687729    1.943732503200    1.603655184926
 C   -0.008724312271    1.835826503200    2.497274184926
 H   -0.547898312271    2.206979503200    1.602508184926
 H   -0.547898312271    2.206979503200    3.392040184926
 O   -0.008159312271    0.407319503200    2.497274184926
 C   -1.337746312271   -0.103087496800    2.497274184926
 H   -1.891129312271    0.227691503200    1.598141184926
 H   -1.891129312271    0.227691503200    3.396407184926
 H   -1.264663312271   -1.198562496800    2.497274184926
NA   -0.006860671723   -2.876073615908   -6.523774974619
