13

 C    1.434051942944    2.322345559440    2.523287457686
 H    1.468571942944    3.423197559440    2.523287457686
 H    1.958634942944    1.953200559440    3.416906457686
 H    1.958634942944    1.953200559440    1.629668457686
 C   -0.008728057056    1.845294559440    2.523287457686
 H   -0.547902057056    2.216447559440    1.628521457686
 H   -0.547902057056    2.216447559440    3.418053457686
 O   -0.008163057056    0.416787559440    2.523287457686
 C   -1.337750057056   -0.093619440560    2.523287457686
 H   -1.891133057056    0.237159559440    1.624154457686
 H   -1.891133057056    0.237159559440    3.422420457686
 H   -1.264667057056   -1.189094440560    2.523287457686
NA   -0.006850889003   -2.900807571326   -6.591730963938
