13

 C    1.434048198159    2.331813615680    2.549300730445
 H    1.468568198159    3.432665615680    2.549300730445
 H    1.958631198159    1.962668615680    3.442919730445
 H    1.958631198159    1.962668615680    1.655681730445
 C   -0.008731801841    1.854762615680    2.549300730445
 H   -0.547905801841    2.225915615680    1.654534730445
 H   -0.547905801841    2.225915615680    3.444066730445
 O   -0.008166801841    0.426255615680    2.549300730445
 C   -1.337753801841   -0.084151384320    2.549300730445
 H   -1.891136801841    0.246627615680    1.650167730445
 H   -1.891136801841    0.246627615680    3.448433730445
 H   -1.264670801841   -1.179626384320    2.549300730445
NA   -0.006841106282   -2.925541526743   -6.659686953257
