10

 C    0.824500131029   -2.541012582847    0.000000000000
 C   -0.274798868971   -1.492152582847    0.000000000000
 N   -1.554406868971   -1.995941582847    0.000000000000
 H   -2.329079868971   -1.345357582847    0.000000000000
 H   -1.741077868971   -2.987992582847    0.000000000000
 O   -0.053206868971   -0.279150582847    0.000000000000
 H    1.795165131029   -2.031867582847    0.000000000000
 H    0.744862131029   -3.182017582847    0.892247000000
 H    0.744862131029   -3.182017582847   -0.892247000000
CS    0.126499789495    0.704569660364    0.000000000000
