10

 C    0.799613525422   -2.677242692118    0.000000000000
 C   -0.299685474578   -1.628382692118    0.000000000000
 N   -1.579293474578   -2.132171692118    0.000000000000
 H   -2.353966474578   -1.481587692118    0.000000000000
 H   -1.765964474578   -3.124222692118    0.000000000000
 O   -0.078093474578   -0.415380692118    0.000000000000
 H    1.770278525422   -2.168097692118    0.000000000000
 H    0.719975525422   -3.318247692118    0.892247000000
 H    0.719975525422   -3.318247692118   -0.892247000000
CS    0.137554515582    0.765083599735    0.000000000000
