10

 C    0.774726919816   -2.813472801390    0.000000000000
 C   -0.324572080184   -1.764612801390    0.000000000000
 N   -1.604180080184   -2.268401801390    0.000000000000
 H   -2.378853080184   -1.617817801390    0.000000000000
 H   -1.790851080184   -3.260452801390    0.000000000000
 O   -0.102980080184   -0.551610801390    0.000000000000
 H    1.745391919816   -2.304327801390    0.000000000000
 H    0.695088919816   -3.454477801390    0.892247000000
 H    0.695088919816   -3.454477801390   -0.892247000000
CS    0.148609241669    0.825597539105    0.000000000000
