10

 C    0.662737194588   -3.426508293111    0.000000000000
 C   -0.436561805412   -2.377648293111    0.000000000000
 N   -1.716169805412   -2.881437293111    0.000000000000
 H   -2.490842805412   -2.230853293111    0.000000000000
 H   -1.902840805412   -3.873488293111    0.000000000000
 O   -0.214969805412   -1.164646293111    0.000000000000
 H    1.633402194588   -2.917363293111    0.000000000000
 H    0.583099194588   -4.067513293111    0.892247000000
 H    0.583099194588   -4.067513293111   -0.892247000000
CS    0.198355509061    1.097910266274    0.000000000000
