10

 C    0.612963983375   -3.698968511654    0.000000000000
 C   -0.486335016625   -2.650108511654    0.000000000000
 N   -1.765943016625   -3.153897511654    0.000000000000
 H   -2.540616016625   -2.503313511654    0.000000000000
 H   -1.952614016625   -4.145948511654    0.000000000000
 O   -0.264743016625   -1.437106511654    0.000000000000
 H    1.583628983375   -3.189823511654    0.000000000000
 H    0.533325983375   -4.339973511654    0.892247000000
 H    0.533325983375   -4.339973511654   -0.892247000000
CS    0.220464961235    1.218938145016    0.000000000000
