10

 C    0.600520680572   -3.767083566289    0.000000000000
 C   -0.498778319428   -2.718223566289    0.000000000000
 N   -1.778386319428   -3.222012566289    0.000000000000
 H   -2.553059319428   -2.571428566289    0.000000000000
 H   -1.965057319428   -4.214063566289    0.000000000000
 O   -0.277186319428   -1.505221566289    0.000000000000
 H    1.571185680572   -3.257938566289    0.000000000000
 H    0.520882680572   -4.408088566289    0.892247000000
 H    0.520882680572   -4.408088566289   -0.892247000000
CS    0.225992324279    1.249195114701    0.000000000000
