10

 C    0.588077377769   -3.835198620925    0.000000000000
 C   -0.511221622231   -2.786338620925    0.000000000000
 N   -1.790829622231   -3.290127620925    0.000000000000
 H   -2.565502622231   -2.639543620925    0.000000000000
 H   -1.977500622231   -4.282178620925    0.000000000000
 O   -0.289629622231   -1.573336620925    0.000000000000
 H    1.558742377769   -3.326053620925    0.000000000000
 H    0.508439377769   -4.476203620925    0.892247000000
 H    0.508439377769   -4.476203620925   -0.892247000000
CS    0.231519687322    1.279452084386    0.000000000000
