10

 C    0.563190772162   -3.971428730196    0.000000000000
 C   -0.536108227838   -2.922568730196    0.000000000000
 N   -1.815716227838   -3.426357730196    0.000000000000
 H   -2.590389227838   -2.775773730196    0.000000000000
 H   -2.002387227838   -4.418408730196    0.000000000000
 O   -0.314516227838   -1.709566730196    0.000000000000
 H    1.533855772162   -3.462283730196    0.000000000000
 H    0.483552772162   -4.612433730196    0.892247000000
 H    0.483552772162   -4.612433730196   -0.892247000000
CS    0.242574413409    1.339966023757    0.000000000000
