10

 C    0.538304166556   -4.107658839468    0.000000000000
 C   -0.560994833444   -3.058798839468    0.000000000000
 N   -1.840602833444   -3.562587839468    0.000000000000
 H   -2.615275833444   -2.912003839468    0.000000000000
 H   -2.027273833444   -4.554638839468    0.000000000000
 O   -0.339402833444   -1.845796839468    0.000000000000
 H    1.508969166556   -3.598513839468    0.000000000000
 H    0.458666166556   -4.748663839468    0.892247000000
 H    0.458666166556   -4.748663839468   -0.892247000000
CS    0.253629139497    1.400479963128    0.000000000000
