10

 C    0.500974258147   -4.312004003375    0.000000000000
 C   -0.598324741853   -3.263144003375    0.000000000000
 N   -1.877932741853   -3.766933003375    0.000000000000
 H   -2.652605741853   -3.116349003375    0.000000000000
 H   -2.064603741853   -4.758984003375    0.000000000000
 O   -0.376732741853   -2.050142003375    0.000000000000
 H    1.471639258147   -3.802859003375    0.000000000000
 H    0.421336258147   -4.953009003375    0.892247000000
 H    0.421336258147   -4.953009003375   -0.892247000000
CS    0.270211228627    1.491250872184    0.000000000000
