10

 C    0.476087652540   -4.448234112646    0.000000000000
 C   -0.623211347460   -3.399374112646    0.000000000000
 N   -1.902819347460   -3.903163112646    0.000000000000
 H   -2.677492347460   -3.252579112646    0.000000000000
 H   -2.089490347460   -4.895214112646    0.000000000000
 O   -0.401619347460   -2.186372112646    0.000000000000
 H    1.446752652540   -3.939089112646    0.000000000000
 H    0.396449652540   -5.089239112646    0.892247000000
 H    0.396449652540   -5.089239112646   -0.892247000000
CS    0.281265954714    1.551764811555    0.000000000000
