10

 C    0.463644349737   -4.516349167282    0.000000000000
 C   -0.635654650263   -3.467489167282    0.000000000000
 N   -1.915262650263   -3.971278167282    0.000000000000
 H   -2.689935650263   -3.320694167282    0.000000000000
 H   -2.101933650263   -4.963329167282    0.000000000000
 O   -0.414062650263   -2.254487167282    0.000000000000
 H    1.434309349737   -4.007204167282    0.000000000000
 H    0.384006349737   -5.157354167282    0.892247000000
 H    0.384006349737   -5.157354167282   -0.892247000000
CS    0.286793317758    1.582021781240    0.000000000000
