10

 C    0.451201046934   -4.584464221917    0.000000000000
 C   -0.648097953066   -3.535604221917    0.000000000000
 N   -1.927705953066   -4.039393221917    0.000000000000
 H   -2.702378953066   -3.388809221917    0.000000000000
 H   -2.114376953066   -5.031444221917    0.000000000000
 O   -0.426505953066   -2.322602221917    0.000000000000
 H    1.421866046934   -4.075319221917    0.000000000000
 H    0.371563046934   -5.225469221917    0.892247000000
 H    0.371563046934   -5.225469221917   -0.892247000000
CS    0.292320680801    1.612278750926    0.000000000000
