10

 C    0.438757744131   -4.652579276553    0.000000000000
 C   -0.660541255869   -3.603719276553    0.000000000000
 N   -1.940149255869   -4.107508276553    0.000000000000
 H   -2.714822255869   -3.456924276553    0.000000000000
 H   -2.126820255869   -5.099559276553    0.000000000000
 O   -0.438949255869   -2.390717276553    0.000000000000
 H    1.409422744131   -4.143434276553    0.000000000000
 H    0.359119744131   -5.293584276553    0.892247000000
 H    0.359119744131   -5.293584276553   -0.892247000000
CS    0.297848043845    1.642535720611    0.000000000000
