10

 C    0.426314441328   -4.720694331189    0.000000000000
 C   -0.672984558672   -3.671834331189    0.000000000000
 N   -1.952592558672   -4.175623331189    0.000000000000
 H   -2.727265558672   -3.525039331189    0.000000000000
 H   -2.139263558672   -5.167674331189    0.000000000000
 O   -0.451392558672   -2.458832331189    0.000000000000
 H    1.396979441328   -4.211549331189    0.000000000000
 H    0.346676441328   -5.361699331189    0.892247000000
 H    0.346676441328   -5.361699331189   -0.892247000000
CS    0.303375406888    1.672792690297    0.000000000000
