10

 C    0.413871138525   -4.788809385824    0.000000000000
 C   -0.685427861475   -3.739949385824    0.000000000000
 N   -1.965035861475   -4.243738385824    0.000000000000
 H   -2.739708861475   -3.593154385824    0.000000000000
 H   -2.151706861475   -5.235789385824    0.000000000000
 O   -0.463835861475   -2.526947385824    0.000000000000
 H    1.384536138525   -4.279664385824    0.000000000000
 H    0.334233138525   -5.429814385824    0.892247000000
 H    0.334233138525   -5.429814385824   -0.892247000000
CS    0.308902769932    1.703049659982    0.000000000000
