10

 C    0.388984532918   -4.925039495096    0.000000000000
 C   -0.710314467082   -3.876179495096    0.000000000000
 N   -1.989922467082   -4.379968495096    0.000000000000
 H   -2.764595467082   -3.729384495096    0.000000000000
 H   -2.176593467082   -5.372019495096    0.000000000000
 O   -0.488722467082   -2.663177495096    0.000000000000
 H    1.359649532918   -4.415894495096    0.000000000000
 H    0.309346532918   -5.566044495096    0.892247000000
 H    0.309346532918   -5.566044495096   -0.892247000000
CS    0.319957496019    1.763563599353    0.000000000000
