10

 C    0.339211321706   -5.197499713639    0.000000000000
 C   -0.760087678294   -4.148639713639    0.000000000000
 N   -2.039695678294   -4.652428713639    0.000000000000
 H   -2.814368678294   -4.001844713639    0.000000000000
 H   -2.226366678294   -5.644479713639    0.000000000000
 O   -0.538495678294   -2.935637713639    0.000000000000
 H    1.309876321706   -4.688354713639    0.000000000000
 H    0.259573321706   -5.838504713639    0.892247000000
 H    0.259573321706   -5.838504713639   -0.892247000000
CS    0.342066948193    1.884591478094    0.000000000000
