10

 C    0.326768018902   -5.265614768274    0.000000000000
 C   -0.772530981098   -4.216754768274    0.000000000000
 N   -2.052138981098   -4.720543768274    0.000000000000
 H   -2.826811981098   -4.069959768274    0.000000000000
 H   -2.238809981098   -5.712594768274    0.000000000000
 O   -0.550938981098   -3.003752768274    0.000000000000
 H    1.297433018902   -4.756469768274    0.000000000000
 H    0.247130018902   -5.906619768274    0.892247000000
 H    0.247130018902   -5.906619768274   -0.892247000000
CS    0.347594311237    1.914848447780    0.000000000000
