10

 C    0.264551504887   -5.606190041453    0.000000000000
 C   -0.834747495113   -4.557330041453    0.000000000000
 N   -2.114355495113   -5.061119041453    0.000000000000
 H   -2.889028495113   -4.410535041453    0.000000000000
 H   -2.301026495113   -6.053170041453    0.000000000000
 O   -0.613155495113   -3.344328041453    0.000000000000
 H    1.235216504887   -5.097045041453    0.000000000000
 H    0.184913504887   -6.247195041453    0.892247000000
 H    0.184913504887   -6.247195041453   -0.892247000000
CS    0.375231126454    2.066133296207    0.000000000000
