10

 C    0.239664899280   -5.742420150724    0.000000000000
 C   -0.859634100720   -4.693560150724    0.000000000000
 N   -2.139242100720   -5.197349150724    0.000000000000
 H   -2.913915100720   -4.546765150724    0.000000000000
 H   -2.325913100720   -6.189400150724    0.000000000000
 O   -0.638042100720   -3.480558150724    0.000000000000
 H    1.210329899280   -5.233275150724    0.000000000000
 H    0.160026899280   -6.383425150724    0.892247000000
 H    0.160026899280   -6.383425150724   -0.892247000000
CS    0.386285852541    2.126647235578    0.000000000000
