10

 C    0.227221596477   -5.810535205360    0.000000000000
 C   -0.872077403523   -4.761675205360    0.000000000000
 N   -2.151685403523   -5.265464205360    0.000000000000
 H   -2.926358403523   -4.614880205360    0.000000000000
 H   -2.338356403523   -6.257515205360    0.000000000000
 O   -0.650485403523   -3.548673205360    0.000000000000
 H    1.197886596477   -5.301390205360    0.000000000000
 H    0.147583596477   -6.451540205360    0.892247000000
 H    0.147583596477   -6.451540205360   -0.892247000000
CS    0.391813215585    2.156904205263    0.000000000000
