10

 C    0.214778293674   -5.878650259995    0.000000000000
 C   -0.884520706326   -4.829790259995    0.000000000000
 N   -2.164128706326   -5.333579259995    0.000000000000
 H   -2.938801706326   -4.682995259995    0.000000000000
 H   -2.350799706326   -6.325630259995    0.000000000000
 O   -0.662928706326   -3.616788259995    0.000000000000
 H    1.185443293674   -5.369505259995    0.000000000000
 H    0.135140293674   -6.519655259995    0.892247000000
 H    0.135140293674   -6.519655259995   -0.892247000000
CS    0.397340578628    2.187161174948    0.000000000000
