10

 C    0.202334990871   -5.946765314631    0.000000000000
 C   -0.896964009129   -4.897905314631    0.000000000000
 N   -2.176572009129   -5.401694314631    0.000000000000
 H   -2.951245009129   -4.751110314631    0.000000000000
 H   -2.363243009129   -6.393745314631    0.000000000000
 O   -0.675372009129   -3.684903314631    0.000000000000
 H    1.172999990871   -5.437620314631    0.000000000000
 H    0.122696990871   -6.587770314631    0.892247000000
 H    0.122696990871   -6.587770314631   -0.892247000000
CS    0.402867941672    2.217418144634    0.000000000000
