10

 C    0.189891688068   -6.014880369267    0.000000000000
 C   -0.909407311932   -4.966020369267    0.000000000000
 N   -2.189015311932   -5.469809369267    0.000000000000
 H   -2.963688311932   -4.819225369267    0.000000000000
 H   -2.375686311932   -6.461860369267    0.000000000000
 O   -0.687815311932   -3.753018369267    0.000000000000
 H    1.160556688068   -5.505735369267    0.000000000000
 H    0.110253688068   -6.655885369267    0.892247000000
 H    0.110253688068   -6.655885369267   -0.892247000000
CS    0.408395304715    2.247675114319    0.000000000000
