10

 C    0.152561779658   -6.219225533174    0.000000000000
 C   -0.946737220342   -5.170365533174    0.000000000000
 N   -2.226345220342   -5.674154533174    0.000000000000
 H   -3.001018220342   -5.023570533174    0.000000000000
 H   -2.413016220342   -6.666205533174    0.000000000000
 O   -0.725145220342   -3.957363533174    0.000000000000
 H    1.123226779658   -5.710080533174    0.000000000000
 H    0.072923779658   -6.860230533174    0.892247000000
 H    0.072923779658   -6.860230533174   -0.892247000000
CS    0.424977393846    2.338446023375    0.000000000000
