10

 C    0.127675174052   -6.355455642445    0.000000000000
 C   -0.971623825948   -5.306595642445    0.000000000000
 N   -2.251231825948   -5.810384642445    0.000000000000
 H   -3.025904825948   -5.159800642445    0.000000000000
 H   -2.437902825948   -6.802435642445    0.000000000000
 O   -0.750031825948   -4.093593642445    0.000000000000
 H    1.098340174052   -5.846310642445    0.000000000000
 H    0.048037174052   -6.996460642445    0.892247000000
 H    0.048037174052   -6.996460642445   -0.892247000000
CS    0.436032119933    2.398959962746    0.000000000000
