10

 C    0.090345265643   -6.559800806352    0.000000000000
 C   -1.008953734357   -5.510940806352    0.000000000000
 N   -2.288561734357   -6.014729806352    0.000000000000
 H   -3.063234734357   -5.364145806352    0.000000000000
 H   -2.475232734357   -7.006780806352    0.000000000000
 O   -0.787361734357   -4.297938806352    0.000000000000
 H    1.061010265643   -6.050655806352    0.000000000000
 H    0.010707265643   -7.200805806352    0.892247000000
 H    0.010707265643   -7.200805806352   -0.892247000000
CS    0.452614209064    2.489730871802    0.000000000000
