10

 C    0.065458660036   -6.696030915623    0.000000000000
 C   -1.033840339964   -5.647170915623    0.000000000000
 N   -2.313448339964   -6.150959915623    0.000000000000
 H   -3.088121339964   -5.500375915623    0.000000000000
 H   -2.500119339964   -7.143010915623    0.000000000000
 O   -0.812248339964   -4.434168915623    0.000000000000
 H    1.036123660036   -6.186885915623    0.000000000000
 H   -0.014179339964   -7.337035915623    0.892247000000
 H   -0.014179339964   -7.337035915623   -0.892247000000
CS    0.463668935151    2.550244811173    0.000000000000
