10

 C    0.028128751627   -6.900376079531    0.000000000000
 C   -1.071170248373   -5.851516079531    0.000000000000
 N   -2.350778248373   -6.355305079531    0.000000000000
 H   -3.125451248373   -5.704721079531    0.000000000000
 H   -2.537449248373   -7.347356079531    0.000000000000
 O   -0.849578248373   -4.638514079531    0.000000000000
 H    0.998793751627   -6.391231079531    0.000000000000
 H   -0.051509248373   -7.541381079531    0.892247000000
 H   -0.051509248373   -7.541381079531   -0.892247000000
CS    0.480251024281    2.641015720229    0.000000000000
