10

 C    0.015685448824   -6.968491134166    0.000000000000
 C   -1.083613551176   -5.919631134166    0.000000000000
 N   -2.363221551176   -6.423420134166    0.000000000000
 H   -3.137894551176   -5.772836134166    0.000000000000
 H   -2.549892551176   -7.415471134166    0.000000000000
 O   -0.862021551176   -4.706629134166    0.000000000000
 H    0.986350448824   -6.459346134166    0.000000000000
 H   -0.063952551176   -7.609496134166    0.892247000000
 H   -0.063952551176   -7.609496134166   -0.892247000000
CS    0.485778387325    2.671272689915    0.000000000000
