10

 C    0.003242146020   -7.036606188802    0.000000000000
 C   -1.096056853980   -5.987746188802    0.000000000000
 N   -2.375664853980   -6.491535188802    0.000000000000
 H   -3.150337853980   -5.840951188802    0.000000000000
 H   -2.562335853980   -7.483586188802    0.000000000000
 O   -0.874464853980   -4.774744188802    0.000000000000
 H    0.973907146020   -6.527461188802    0.000000000000
 H   -0.076395853980   -7.677611188802    0.892247000000
 H   -0.076395853980   -7.677611188802   -0.892247000000
CS    0.491305750368    2.701529659600    0.000000000000
