10

 C   -0.009201156783   -7.104721243438    0.000000000000
 C   -1.108500156783   -6.055861243438    0.000000000000
 N   -2.388108156783   -6.559650243438    0.000000000000
 H   -3.162781156783   -5.909066243438    0.000000000000
 H   -2.574779156783   -7.551701243438    0.000000000000
 O   -0.886908156783   -4.842859243438    0.000000000000
 H    0.961463843217   -6.595576243438    0.000000000000
 H   -0.088839156783   -7.745726243438    0.892247000000
 H   -0.088839156783   -7.745726243438   -0.892247000000
CS    0.496833113412    2.731786629286    0.000000000000
