10

 C   -0.034087762389   -7.240951352709    0.000000000000
 C   -1.133386762389   -6.192091352709    0.000000000000
 N   -2.412994762389   -6.695880352709    0.000000000000
 H   -3.187667762389   -6.045296352709    0.000000000000
 H   -2.599665762389   -7.687931352709    0.000000000000
 O   -0.911794762389   -4.979089352709    0.000000000000
 H    0.936577237611   -6.731806352709    0.000000000000
 H   -0.113725762389   -7.881956352709    0.892247000000
 H   -0.113725762389   -7.881956352709   -0.892247000000
CS    0.507887839499    2.792300568656    0.000000000000
