10

 C   -0.058974367995   -7.377181461980    0.000000000000
 C   -1.158273367995   -6.328321461980    0.000000000000
 N   -2.437881367995   -6.832110461980    0.000000000000
 H   -3.212554367995   -6.181526461980    0.000000000000
 H   -2.624552367995   -7.824161461980    0.000000000000
 O   -0.936681367995   -5.115319461980    0.000000000000
 H    0.911690632005   -6.868036461980    0.000000000000
 H   -0.138612367995   -8.018186461980    0.892247000000
 H   -0.138612367995   -8.018186461980   -0.892247000000
CS    0.518942565586    2.852814508027    0.000000000000
