10

 C   -0.108747579208   -7.649641680523    0.000000000000
 C   -1.208046579208   -6.600781680523    0.000000000000
 N   -2.487654579208   -7.104570680523    0.000000000000
 H   -3.262327579208   -6.453986680523    0.000000000000
 H   -2.674325579208   -8.096621680523    0.000000000000
 O   -0.986454579208   -5.387779680523    0.000000000000
 H    0.861917420792   -7.140496680523    0.000000000000
 H   -0.188385579208   -8.290646680523    0.892247000000
 H   -0.188385579208   -8.290646680523   -0.892247000000
CS    0.541052017760    2.973842386769    0.000000000000
