10

 C   -0.121190882011   -7.717756735159    0.000000000000
 C   -1.220489882011   -6.668896735159    0.000000000000
 N   -2.500097882011   -7.172685735159    0.000000000000
 H   -3.274770882011   -6.522101735159    0.000000000000
 H   -2.686768882011   -8.164736735159    0.000000000000
 O   -0.998897882011   -5.455894735159    0.000000000000
 H    0.849474117989   -7.208611735159    0.000000000000
 H   -0.200828882011   -8.358761735159    0.892247000000
 H   -0.200828882011   -8.358761735159   -0.892247000000
CS    0.546579380804    3.004099356454    0.000000000000
