10

 C   -0.208294001633   -8.194562117608    0.000000000000
 C   -1.307593001633   -7.145702117608    0.000000000000
 N   -2.587201001633   -7.649491117608    0.000000000000
 H   -3.361874001633   -6.998907117608    0.000000000000
 H   -2.773872001633   -8.641542117608    0.000000000000
 O   -1.086001001633   -5.932700117608    0.000000000000
 H    0.762370998367   -7.685417117608    0.000000000000
 H   -0.287932001633   -8.835567117608    0.892247000000
 H   -0.287932001633   -8.835567117608   -0.892247000000
CS    0.585270922108    3.215898144252    0.000000000000
