10

 C   -0.220737304436   -8.262677172244    0.000000000000
 C   -1.320036304436   -7.213817172244    0.000000000000
 N   -2.599644304436   -7.717606172244    0.000000000000
 H   -3.374317304436   -7.067022172244    0.000000000000
 H   -2.786315304436   -8.709657172244    0.000000000000
 O   -1.098444304436   -6.000815172244    0.000000000000
 H    0.749927695564   -7.753532172244    0.000000000000
 H   -0.300375304436   -8.903682172244    0.892247000000
 H   -0.300375304436   -8.903682172244   -0.892247000000
CS    0.590798285152    3.246155113937    0.000000000000
