10

 C   -0.233180607239   -8.330792226880    0.000000000000
 C   -1.332479607239   -7.281932226880    0.000000000000
 N   -2.612087607239   -7.785721226880    0.000000000000
 H   -3.386760607239   -7.135137226880    0.000000000000
 H   -2.798758607239   -8.777772226880    0.000000000000
 O   -1.110887607239   -6.068930226880    0.000000000000
 H    0.737484392761   -7.821647226880    0.000000000000
 H   -0.312818607239   -8.971797226880    0.892247000000
 H   -0.312818607239   -8.971797226880   -0.892247000000
CS    0.596325648195    3.276412083623    0.000000000000
