10

 C   -0.245623910043   -8.398907281515    0.000000000000
 C   -1.344922910043   -7.350047281515    0.000000000000
 N   -2.624530910043   -7.853836281515    0.000000000000
 H   -3.399203910043   -7.203252281515    0.000000000000
 H   -2.811201910043   -8.845887281515    0.000000000000
 O   -1.123330910043   -6.137045281515    0.000000000000
 H    0.725041089957   -7.889762281515    0.000000000000
 H   -0.325261910043   -9.039912281515    0.892247000000
 H   -0.325261910043   -9.039912281515   -0.892247000000
CS    0.601853011239    3.306669053308    0.000000000000
