10

 C   -0.270510515649   -8.535137390787    0.000000000000
 C   -1.369809515649   -7.486277390787    0.000000000000
 N   -2.649417515649   -7.990066390787    0.000000000000
 H   -3.424090515649   -7.339482390787    0.000000000000
 H   -2.836088515649   -8.982117390787    0.000000000000
 O   -1.148217515649   -6.273275390787    0.000000000000
 H    0.700154484351   -8.025992390787    0.000000000000
 H   -0.350148515649   -9.176142390787    0.892247000000
 H   -0.350148515649   -9.176142390787   -0.892247000000
CS    0.612907737326    3.367182992679    0.000000000000
