13

 C   -2.091730798174   -0.060729860915    0.000000000000
 H   -3.187248798174   -0.060729860915    0.000000000000
 C   -1.360263798174    1.149252139085    0.000000000000
 H   -1.898146798174    2.107871139085    0.000000000000
 C   -1.360263798174   -1.270712860915    0.000000000000
 H   -1.898145798174   -2.229331860915    0.000000000000
 C    0.044906201826    1.154367139085    0.000000000000
 H    0.591536201826    2.106525139085    0.000000000000
 C    0.044906201826   -1.275826860915    0.000000000000
 H    0.591536201826   -2.227983860915    0.000000000000
 C    0.839943201826   -0.060729860915    0.000000000000
 O    2.126290201826   -0.060729860915    0.000000000000
LI    2.626290201826    0.805295542869    0.000000000000
