13

 C   -2.095237045253   -0.066802859001    0.000000000000
 H   -3.190755045253   -0.066802859001    0.000000000000
 C   -1.363770045253    1.143179140999    0.000000000000
 H   -1.901653045253    2.101798140999    0.000000000000
 C   -1.363770045253   -1.276785859001    0.000000000000
 H   -1.901652045253   -2.235404859001    0.000000000000
 C    0.041399954747    1.148294140999    0.000000000000
 H    0.588029954747    2.100452140999    0.000000000000
 C    0.041399954747   -1.281899859001    0.000000000000
 H    0.588029954747   -2.234056859001    0.000000000000
 C    0.836436954747   -0.066802859001    0.000000000000
 O    2.122783954747   -0.066802859001    0.000000000000
LI    2.672783954747    0.885825085162    0.000000000000
