13

 C   -2.102249539412   -0.078948855172    0.000000000000
 H   -3.197767539412   -0.078948855172    0.000000000000
 C   -1.370782539412    1.131033144828    0.000000000000
 H   -1.908665539412    2.089652144828    0.000000000000
 C   -1.370782539412   -1.288931855172    0.000000000000
 H   -1.908664539412   -2.247550855172    0.000000000000
 C    0.034387460588    1.136148144828    0.000000000000
 H    0.581017460588    2.088306144828    0.000000000000
 C    0.034387460588   -1.294045855172    0.000000000000
 H    0.581017460588   -2.246202855172    0.000000000000
 C    0.829424460588   -0.078948855172    0.000000000000
 O    2.115771460588   -0.078948855172    0.000000000000
LI    2.765771460588    1.046884169748    0.000000000000
