13

 C   -2.112768280650   -0.097167849428    0.000000000000
 H   -3.208286280650   -0.097167849428    0.000000000000
 C   -1.381301280650    1.112814150572    0.000000000000
 H   -1.919184280650    2.071433150572    0.000000000000
 C   -1.381301280650   -1.307150849428    0.000000000000
 H   -1.919183280650   -2.265769849428    0.000000000000
 C    0.023868719350    1.117929150572    0.000000000000
 H    0.570498719350    2.070087150572    0.000000000000
 C    0.023868719350   -1.312264849428    0.000000000000
 H    0.570498719350   -2.264421849428    0.000000000000
 C    0.818905719350   -0.097167849428    0.000000000000
 O    2.105252719350   -0.097167849428    0.000000000000
LI    2.905252719350    1.288472796627    0.000000000000
