13

 C   -2.116274527730   -0.103240847514    0.000000000000
 H   -3.211792527730   -0.103240847514    0.000000000000
 C   -1.384807527730    1.106741152486    0.000000000000
 H   -1.922690527730    2.065360152486    0.000000000000
 C   -1.384807527730   -1.313223847514    0.000000000000
 H   -1.922689527730   -2.271842847514    0.000000000000
 C    0.020362472270    1.111856152486    0.000000000000
 H    0.566992472270    2.064014152486    0.000000000000
 C    0.020362472270   -1.318337847514    0.000000000000
 H    0.566992472270   -2.270494847514    0.000000000000
 C    0.815399472270   -0.103240847514    0.000000000000
 O    2.101746472270   -0.103240847514    0.000000000000
LI    2.951746472270    1.369002338920    0.000000000000
