13

 C   -2.119780774809   -0.109313845599    0.000000000000
 H   -3.215298774809   -0.109313845599    0.000000000000
 C   -1.388313774809    1.100668154401    0.000000000000
 H   -1.926196774809    2.059287154401    0.000000000000
 C   -1.388313774809   -1.319296845599    0.000000000000
 H   -1.926195774809   -2.277915845599    0.000000000000
 C    0.016856225191    1.105783154401    0.000000000000
 H    0.563486225191    2.057941154401    0.000000000000
 C    0.016856225191   -1.324410845599    0.000000000000
 H    0.563486225191   -2.276567845599    0.000000000000
 C    0.811893225191   -0.109313845599    0.000000000000
 O    2.098240225191   -0.109313845599    0.000000000000
LI    2.998240225191    1.449531881213    0.000000000000
