13

 C   -2.130299516048   -0.127532839856    0.000000000000
 H   -3.225817516048   -0.127532839856    0.000000000000
 C   -1.398832516048    1.082449160144    0.000000000000
 H   -1.936715516048    2.041068160144    0.000000000000
 C   -1.398832516048   -1.337515839856    0.000000000000
 H   -1.936714516048   -2.296134839856    0.000000000000
 C    0.006337483952    1.087564160144    0.000000000000
 H    0.552967483952    2.039722160144    0.000000000000
 C    0.006337483952   -1.342629839856    0.000000000000
 H    0.552967483952   -2.294786839856    0.000000000000
 C    0.801374483952   -0.127532839856    0.000000000000
 O    2.087721483952   -0.127532839856    0.000000000000
LI    3.137721483952    1.691120508092    0.000000000000
