13

 C   -2.133805763127   -0.133605837941    0.000000000000
 H   -3.229323763127   -0.133605837941    0.000000000000
 C   -1.402338763127    1.076376162059    0.000000000000
 H   -1.940221763127    2.034995162059    0.000000000000
 C   -1.402338763127   -1.343588837941    0.000000000000
 H   -1.940220763127   -2.302207837941    0.000000000000
 C    0.002831236873    1.081491162059    0.000000000000
 H    0.549461236873    2.033649162059    0.000000000000
 C    0.002831236873   -1.348702837941    0.000000000000
 H    0.549461236873   -2.300859837941    0.000000000000
 C    0.797868236873   -0.133605837941    0.000000000000
 O    2.084215236873   -0.133605837941    0.000000000000
LI    3.184215236873    1.771650050385    0.000000000000
