13

 C   -2.140818257286   -0.145751834112    0.000000000000
 H   -3.236336257286   -0.145751834112    0.000000000000
 C   -1.409351257286    1.064230165888    0.000000000000
 H   -1.947234257286    2.022849165888    0.000000000000
 C   -1.409351257286   -1.355734834112    0.000000000000
 H   -1.947233257286   -2.314353834112    0.000000000000
 C   -0.004181257286    1.069345165888    0.000000000000
 H    0.542448742714    2.021503165888    0.000000000000
 C   -0.004181257286   -1.360848834112    0.000000000000
 H    0.542448742714   -2.313005834112    0.000000000000
 C    0.790855742714   -0.145751834112    0.000000000000
 O    2.077202742714   -0.145751834112    0.000000000000
LI    3.277202742714    1.932709134971    0.000000000000
