13

 C   -2.147830751445   -0.157897830283    0.000000000000
 H   -3.243348751445   -0.157897830283    0.000000000000
 C   -1.416363751445    1.052084169717    0.000000000000
 H   -1.954246751445    2.010703169717    0.000000000000
 C   -1.416363751445   -1.367880830283    0.000000000000
 H   -1.954245751445   -2.326499830283    0.000000000000
 C   -0.011193751445    1.057199169717    0.000000000000
 H    0.535436248555    2.009357169717    0.000000000000
 C   -0.011193751445   -1.372994830283    0.000000000000
 H    0.535436248555   -2.325151830283    0.000000000000
 C    0.783843248555   -0.157897830283    0.000000000000
 O    2.070190248555   -0.157897830283    0.000000000000
LI    3.370190248555    2.093768219556    0.000000000000
