13

 C   -2.158349492683   -0.176116824540    0.000000000000
 H   -3.253867492683   -0.176116824540    0.000000000000
 C   -1.426882492683    1.033865175460    0.000000000000
 H   -1.964765492683    1.992484175460    0.000000000000
 C   -1.426882492683   -1.386099824540    0.000000000000
 H   -1.964764492683   -2.344718824540    0.000000000000
 C   -0.021712492683    1.038980175460    0.000000000000
 H    0.524917507317    1.991138175460    0.000000000000
 C   -0.021712492683   -1.391213824540    0.000000000000
 H    0.524917507317   -2.343370824540    0.000000000000
 C    0.773324507317   -0.176116824540    0.000000000000
 O    2.059671507317   -0.176116824540    0.000000000000
LI    3.509671507317    2.335356846435    0.000000000000
