13

 C   -2.161855739763   -0.182189822625    0.000000000000
 H   -3.257373739763   -0.182189822625    0.000000000000
 C   -1.430388739763    1.027792177375    0.000000000000
 H   -1.968271739763    1.986411177375    0.000000000000
 C   -1.430388739763   -1.392172822625    0.000000000000
 H   -1.968270739763   -2.350791822625    0.000000000000
 C   -0.025218739763    1.032907177375    0.000000000000
 H    0.521411260237    1.985065177375    0.000000000000
 C   -0.025218739763   -1.397286822625    0.000000000000
 H    0.521411260237   -2.349443822625    0.000000000000
 C    0.769818260237   -0.182189822625    0.000000000000
 O    2.056165260237   -0.182189822625    0.000000000000
LI    3.556165260237    2.415886388728    0.000000000000
