13

 C   -2.168868233922   -0.194335818796    0.000000000000
 H   -3.264386233922   -0.194335818796    0.000000000000
 C   -1.437401233922    1.015646181204    0.000000000000
 H   -1.975284233922    1.974265181204    0.000000000000
 C   -1.437401233922   -1.404318818796    0.000000000000
 H   -1.975283233922   -2.362937818796    0.000000000000
 C   -0.032231233922    1.020761181204    0.000000000000
 H    0.514398766078    1.972919181204    0.000000000000
 C   -0.032231233922   -1.409432818796    0.000000000000
 H    0.514398766078   -2.361589818796    0.000000000000
 C    0.762805766078   -0.194335818796    0.000000000000
 O    2.049152766078   -0.194335818796    0.000000000000
LI    3.649152766078    2.576945473314    0.000000000000
