13

 C   -2.172374481001   -0.200408816882    0.000000000000
 H   -3.267892481001   -0.200408816882    0.000000000000
 C   -1.440907481001    1.009573183118    0.000000000000
 H   -1.978790481001    1.968192183118    0.000000000000
 C   -1.440907481001   -1.410391816882    0.000000000000
 H   -1.978789481001   -2.369010816882    0.000000000000
 C   -0.035737481001    1.014688183118    0.000000000000
 H    0.510892518999    1.966846183118    0.000000000000
 C   -0.035737481001   -1.415505816882    0.000000000000
 H    0.510892518999   -2.367662816882    0.000000000000
 C    0.759299518999   -0.200408816882    0.000000000000
 O    2.045646518999   -0.200408816882    0.000000000000
LI    3.695646518999    2.657475015607    0.000000000000
