13

 C   -2.186399469319   -0.224700809224    0.000000000000
 H   -3.281917469319   -0.224700809224    0.000000000000
 C   -1.454932469319    0.985281190776    0.000000000000
 H   -1.992815469319    1.943900190776    0.000000000000
 C   -1.454932469319   -1.434683809224    0.000000000000
 H   -1.992814469319   -2.393302809224    0.000000000000
 C   -0.049762469319    0.990396190776    0.000000000000
 H    0.496867530681    1.942554190776    0.000000000000
 C   -0.049762469319   -1.439797809224    0.000000000000
 H    0.496867530681   -2.391954809224    0.000000000000
 C    0.745274530681   -0.224700809224    0.000000000000
 O    2.031621530681   -0.224700809224    0.000000000000
LI    3.881621530681    2.979593184779    0.000000000000
