13

 C   -2.193411963478   -0.236846805395    0.000000000000
 H   -3.288929963478   -0.236846805395    0.000000000000
 C   -1.461944963478    0.973135194605    0.000000000000
 H   -1.999827963478    1.931754194605    0.000000000000
 C   -1.461944963478   -1.446829805395    0.000000000000
 H   -1.999826963478   -2.405448805395    0.000000000000
 C   -0.056774963478    0.978250194605    0.000000000000
 H    0.489855036522    1.930408194605    0.000000000000
 C   -0.056774963478   -1.451943805395    0.000000000000
 H    0.489855036522   -2.404100805395    0.000000000000
 C    0.738262036522   -0.236846805395    0.000000000000
 O    2.024609036522   -0.236846805395    0.000000000000
LI    3.974609036522    3.140652269365    0.000000000000
