13

 C   -2.203930704716   -0.255065799651    0.000000000000
 H   -3.299448704716   -0.255065799651    0.000000000000
 C   -1.472463704716    0.954916200349    0.000000000000
 H   -2.010346704716    1.913535200349    0.000000000000
 C   -1.472463704716   -1.465048799651    0.000000000000
 H   -2.010345704716   -2.423667799651    0.000000000000
 C   -0.067293704716    0.960031200349    0.000000000000
 H    0.479336295284    1.912189200349    0.000000000000
 C   -0.067293704716   -1.470162799651    0.000000000000
 H    0.479336295284   -2.422319799651    0.000000000000
 C    0.727743295284   -0.255065799651    0.000000000000
 O    2.014090295284   -0.255065799651    0.000000000000
LI    4.114090295284    3.382240896243    0.000000000000
