13

 C   -2.214449445954   -0.273284793908    0.000000000000
 H   -3.309967445954   -0.273284793908    0.000000000000
 C   -1.482982445954    0.936697206092    0.000000000000
 H   -2.020865445954    1.895316206092    0.000000000000
 C   -1.482982445954   -1.483267793908    0.000000000000
 H   -2.020864445954   -2.441886793908    0.000000000000
 C   -0.077812445954    0.941812206092    0.000000000000
 H    0.468817554046    1.893970206092    0.000000000000
 C   -0.077812445954   -1.488381793908    0.000000000000
 H    0.468817554046   -2.440538793908    0.000000000000
 C    0.717224554046   -0.273284793908    0.000000000000
 O    2.003571554046   -0.273284793908    0.000000000000
LI    4.253571554046    3.623829523122    0.000000000000
