13

 C   -2.221461940113   -0.285430790079    0.000000000000
 H   -3.316979940113   -0.285430790079    0.000000000000
 C   -1.489994940113    0.924551209921    0.000000000000
 H   -2.027877940113    1.883170209921    0.000000000000
 C   -1.489994940113   -1.495413790079    0.000000000000
 H   -2.027876940113   -2.454032790079    0.000000000000
 C   -0.084824940113    0.929666209921    0.000000000000
 H    0.461805059887    1.881824209921    0.000000000000
 C   -0.084824940113   -1.500527790079    0.000000000000
 H    0.461805059887   -2.452684790079    0.000000000000
 C    0.710212059887   -0.285430790079    0.000000000000
 O    1.996559059887   -0.285430790079    0.000000000000
LI    4.346559059887    3.784888607708    0.000000000000
