13

 C   -2.224968187193   -0.291503788164    0.000000000000
 H   -3.320486187193   -0.291503788164    0.000000000000
 C   -1.493501187193    0.918478211836    0.000000000000
 H   -2.031384187193    1.877097211836    0.000000000000
 C   -1.493501187193   -1.501486788164    0.000000000000
 H   -2.031383187193   -2.460105788164    0.000000000000
 C   -0.088331187193    0.923593211836    0.000000000000
 H    0.458298812807    1.875751211836    0.000000000000
 C   -0.088331187193   -1.506600788164    0.000000000000
 H    0.458298812807   -2.458757788164    0.000000000000
 C    0.706705812807   -0.291503788164    0.000000000000
 O    1.993052812807   -0.291503788164    0.000000000000
LI    4.393052812807    3.865418150001    0.000000000000
