13

 C   -2.249511916749   -0.334014774763    0.000000000000
 H   -3.345029916749   -0.334014774763    0.000000000000
 C   -1.518044916749    0.875967225237    0.000000000000
 H   -2.055927916749    1.834586225237    0.000000000000
 C   -1.518044916749   -1.543997774763    0.000000000000
 H   -2.055926916749   -2.502616774763    0.000000000000
 C   -0.112874916749    0.881082225237    0.000000000000
 H    0.433755083251    1.833240225237    0.000000000000
 C   -0.112874916749   -1.549111774763    0.000000000000
 H    0.433755083251   -2.501268774763    0.000000000000
 C    0.682162083251   -0.334014774763    0.000000000000
 O    1.968509083251   -0.334014774763    0.000000000000
LI    4.718509083251    4.429124946052    0.000000000000
