13

 C   -2.253018163828   -0.340087772848    0.000000000000
 H   -3.348536163828   -0.340087772848    0.000000000000
 C   -1.521551163828    0.869894227152    0.000000000000
 H   -2.059434163828    1.828513227152    0.000000000000
 C   -1.521551163828   -1.550070772848    0.000000000000
 H   -2.059433163828   -2.508689772848    0.000000000000
 C   -0.116381163828    0.875009227152    0.000000000000
 H    0.430248836172    1.827167227152    0.000000000000
 C   -0.116381163828   -1.555184772848    0.000000000000
 H    0.430248836172   -2.507341772848    0.000000000000
 C    0.678655836172   -0.340087772848    0.000000000000
 O    1.965002836172   -0.340087772848    0.000000000000
LI    4.765002836172    4.509654488345    0.000000000000
