13

 C   -2.260030657987   -0.352233769019    0.000000000000
 H   -3.355548657987   -0.352233769019    0.000000000000
 C   -1.528563657987    0.857748230981    0.000000000000
 H   -2.066446657987    1.816367230981    0.000000000000
 C   -1.528563657987   -1.562216769019    0.000000000000
 H   -2.066445657987   -2.520835769019    0.000000000000
 C   -0.123393657987    0.862863230981    0.000000000000
 H    0.423236342013    1.815021230981    0.000000000000
 C   -0.123393657987   -1.567330769019    0.000000000000
 H    0.423236342013   -2.519487769019    0.000000000000
 C    0.671643342013   -0.352233769019    0.000000000000
 O    1.957990342013   -0.352233769019    0.000000000000
LI    4.857990342013    4.670713572930    0.000000000000
