13

 C   -2.270549399226   -0.370452763276    0.000000000000
 H   -3.366067399226   -0.370452763276    0.000000000000
 C   -1.539082399226    0.839529236724    0.000000000000
 H   -2.076965399226    1.798148236724    0.000000000000
 C   -1.539082399226   -1.580435763276    0.000000000000
 H   -2.076964399226   -2.539054763276    0.000000000000
 C   -0.133912399226    0.844644236724    0.000000000000
 H    0.412717600774    1.796802236724    0.000000000000
 C   -0.133912399226   -1.585549763276    0.000000000000
 H    0.412717600774   -2.537706763276    0.000000000000
 C    0.661124600774   -0.370452763276    0.000000000000
 O    1.947471600774   -0.370452763276    0.000000000000
LI    4.997471600774    4.912302199809    0.000000000000
