13

 C   -2.277561893385   -0.382598759447    0.000000000000
 H   -3.373079893385   -0.382598759447    0.000000000000
 C   -1.546094893385    0.827383240553    0.000000000000
 H   -2.083977893385    1.786002240553    0.000000000000
 C   -1.546094893385   -1.592581759447    0.000000000000
 H   -2.083976893385   -2.551200759447    0.000000000000
 C   -0.140924893385    0.832498240553    0.000000000000
 H    0.405705106615    1.784656240553    0.000000000000
 C   -0.140924893385   -1.597695759447    0.000000000000
 H    0.405705106615   -2.549852759447    0.000000000000
 C    0.654112106615   -0.382598759447    0.000000000000
 O    1.940459106615   -0.382598759447    0.000000000000
LI    5.090459106615    5.073361284395    0.000000000000
