13

 C   -2.291586881702   -0.406890751789    0.000000000000
 H   -3.387104881702   -0.406890751789    0.000000000000
 C   -1.560119881702    0.803091248211    0.000000000000
 H   -2.098002881702    1.761710248211    0.000000000000
 C   -1.560119881702   -1.616873751789    0.000000000000
 H   -2.098001881702   -2.575492751789    0.000000000000
 C   -0.154949881702    0.808206248211    0.000000000000
 H    0.391680118298    1.760364248211    0.000000000000
 C   -0.154949881702   -1.621987751789    0.000000000000
 H    0.391680118298   -2.574144751789    0.000000000000
 C    0.640087118298   -0.406890751789    0.000000000000
 O    1.926434118298   -0.406890751789    0.000000000000
LI    5.276434118298    5.395479453567    0.000000000000
