13

 C   -2.295093128782   -0.412963749874    0.000000000000
 H   -3.390611128782   -0.412963749874    0.000000000000
 C   -1.563626128782    0.797018250126    0.000000000000
 H   -2.101509128782    1.755637250126    0.000000000000
 C   -1.563626128782   -1.622946749874    0.000000000000
 H   -2.101508128782   -2.581565749874    0.000000000000
 C   -0.158456128782    0.802133250126    0.000000000000
 H    0.388173871218    1.754291250126    0.000000000000
 C   -0.158456128782   -1.628060749874    0.000000000000
 H    0.388173871218   -2.580217749874    0.000000000000
 C    0.636580871218   -0.412963749874    0.000000000000
 O    1.922927871218   -0.412963749874    0.000000000000
LI    5.322927871218    5.476008995860    0.000000000000
