13

 C   -2.302105622941   -0.425109746045    0.000000000000
 H   -3.397623622941   -0.425109746045    0.000000000000
 C   -1.570638622941    0.784872253955    0.000000000000
 H   -2.108521622941    1.743491253955    0.000000000000
 C   -1.570638622941   -1.635092746045    0.000000000000
 H   -2.108520622941   -2.593711746045    0.000000000000
 C   -0.165468622941    0.789987253955    0.000000000000
 H    0.381161377059    1.742145253955    0.000000000000
 C   -0.165468622941   -1.640206746045    0.000000000000
 H    0.381161377059   -2.592363746045    0.000000000000
 C    0.629568377059   -0.425109746045    0.000000000000
 O    1.915915377059   -0.425109746045    0.000000000000
LI    5.415915377059    5.637068080446    0.000000000000
