13

 C   -2.305611870020   -0.431182744131    0.000000000000
 H   -3.401129870020   -0.431182744131    0.000000000000
 C   -1.574144870020    0.778799255869    0.000000000000
 H   -2.112027870020    1.737418255869    0.000000000000
 C   -1.574144870020   -1.641165744131    0.000000000000
 H   -2.112026870020   -2.599784744131    0.000000000000
 C   -0.168974870020    0.783914255869    0.000000000000
 H    0.377655129980    1.736072255869    0.000000000000
 C   -0.168974870020   -1.646279744131    0.000000000000
 H    0.377655129980   -2.598436744131    0.000000000000
 C    0.626062129980   -0.431182744131    0.000000000000
 O    1.912409129980   -0.431182744131    0.000000000000
LI    5.462409129980    5.717597622739    0.000000000000
