13

 C   -2.309118117100   -0.437255742216    0.000000000000
 H   -3.404636117100   -0.437255742216    0.000000000000
 C   -1.577651117100    0.772726257784    0.000000000000
 H   -2.115534117100    1.731345257784    0.000000000000
 C   -1.577651117100   -1.647238742216    0.000000000000
 H   -2.115533117100   -2.605857742216    0.000000000000
 C   -0.172481117100    0.777841257784    0.000000000000
 H    0.374148882900    1.729999257784    0.000000000000
 C   -0.172481117100   -1.652352742216    0.000000000000
 H    0.374148882900   -2.604509742216    0.000000000000
 C    0.622555882900   -0.437255742216    0.000000000000
 O    1.908902882900   -0.437255742216    0.000000000000
LI    5.508902882900    5.798127165032    0.000000000000
