13

 C   -2.316130611259   -0.449401738387    0.000000000000
 H   -3.411648611259   -0.449401738387    0.000000000000
 C   -1.584663611259    0.760580261613    0.000000000000
 H   -2.122546611259    1.719199261613    0.000000000000
 C   -1.584663611259   -1.659384738387    0.000000000000
 H   -2.122545611259   -2.618003738387    0.000000000000
 C   -0.179493611259    0.765695261613    0.000000000000
 H    0.367136388741    1.717853261613    0.000000000000
 C   -0.179493611259   -1.664498738387    0.000000000000
 H    0.367136388741   -2.616655738387    0.000000000000
 C    0.615543388741   -0.449401738387    0.000000000000
 O    1.901890388741   -0.449401738387    0.000000000000
LI    5.601890388741    5.959186249617    0.000000000000
