13

 C   -2.319636858338   -0.455474736473    0.000000000000
 H   -3.415154858338   -0.455474736473    0.000000000000
 C   -1.588169858338    0.754507263527    0.000000000000
 H   -2.126052858338    1.713126263527    0.000000000000
 C   -1.588169858338   -1.665457736473    0.000000000000
 H   -2.126051858338   -2.624076736473    0.000000000000
 C   -0.182999858338    0.759622263527    0.000000000000
 H    0.363630141662    1.711780263527    0.000000000000
 C   -0.182999858338   -1.670571736473    0.000000000000
 H    0.363630141662   -2.622728736473    0.000000000000
 C    0.612037141662   -0.455474736473    0.000000000000
 O    1.898384141662   -0.455474736473    0.000000000000
LI    5.648384141662    6.039715791910    0.000000000000
