13

 C   -2.337168093735   -0.485839726900    0.000000000000
 H   -3.432686093735   -0.485839726900    0.000000000000
 C   -1.605701093735    0.724142273100    0.000000000000
 H   -2.143584093735    1.682761273100    0.000000000000
 C   -1.605701093735   -1.695822726900    0.000000000000
 H   -2.143583093735   -2.654441726900    0.000000000000
 C   -0.200531093735    0.729257273100    0.000000000000
 H    0.346098906265    1.681415273100    0.000000000000
 C   -0.200531093735   -1.700936726900    0.000000000000
 H    0.346098906265   -2.653093726900    0.000000000000
 C    0.594505906265   -0.485839726900    0.000000000000
 O    1.880852906265   -0.485839726900    0.000000000000
LI    5.880852906265    6.442363503375    0.000000000000
