13

 C   -2.340674340815   -0.491912724986    0.000000000000
 H   -3.436192340815   -0.491912724986    0.000000000000
 C   -1.609207340815    0.718069275014    0.000000000000
 H   -2.147090340815    1.676688275014    0.000000000000
 C   -1.609207340815   -1.701895724986    0.000000000000
 H   -2.147089340815   -2.660514724986    0.000000000000
 C   -0.204037340815    0.723184275014    0.000000000000
 H    0.342592659185    1.675342275014    0.000000000000
 C   -0.204037340815   -1.707009724986    0.000000000000
 H    0.342592659185   -2.659166724986    0.000000000000
 C    0.590999659185   -0.491912724986    0.000000000000
 O    1.877346659185   -0.491912724986    0.000000000000
LI    5.927346659185    6.522893045668    0.000000000000
