13

 C   -2.354699329133   -0.516204717328    0.000000000000
 H   -3.450217329133   -0.516204717328    0.000000000000
 C   -1.623232329133    0.693777282672    0.000000000000
 H   -2.161115329133    1.652396282672    0.000000000000
 C   -1.623232329133   -1.726187717328    0.000000000000
 H   -2.161114329133   -2.684806717328    0.000000000000
 C   -0.218062329133    0.698892282672    0.000000000000
 H    0.328567670867    1.651050282672    0.000000000000
 C   -0.218062329133   -1.731301717328    0.000000000000
 H    0.328567670867   -2.683458717328    0.000000000000
 C    0.576974670867   -0.516204717328    0.000000000000
 O    1.863321670867   -0.516204717328    0.000000000000
LI    6.113321670867    6.845011214840    0.000000000000
