13

 C   -2.358205576212   -0.522277715413    0.000000000000
 H   -3.453723576212   -0.522277715413    0.000000000000
 C   -1.626738576212    0.687704284587    0.000000000000
 H   -2.164621576212    1.646323284587    0.000000000000
 C   -1.626738576212   -1.732260715413    0.000000000000
 H   -2.164620576212   -2.690879715413    0.000000000000
 C   -0.221568576212    0.692819284587    0.000000000000
 H    0.325061423788    1.644977284587    0.000000000000
 C   -0.221568576212   -1.737374715413    0.000000000000
 H    0.325061423788   -2.689531715413    0.000000000000
 C    0.573468423788   -0.522277715413    0.000000000000
 O    1.859815423788   -0.522277715413    0.000000000000
LI    6.159815423788    6.925540757133    0.000000000000
