13

 C   -2.382749305768   -0.564788702012    0.000000000000
 H   -3.478267305768   -0.564788702012    0.000000000000
 C   -1.651282305768    0.645193297988    0.000000000000
 H   -2.189165305768    1.603812297988    0.000000000000
 C   -1.651282305768   -1.774771702012    0.000000000000
 H   -2.189164305768   -2.733390702012    0.000000000000
 C   -0.246112305768    0.650308297988    0.000000000000
 H    0.300517694232    1.602466297988    0.000000000000
 C   -0.246112305768   -1.779885702012    0.000000000000
 H    0.300517694232   -2.732042702012    0.000000000000
 C    0.548924694232   -0.564788702012    0.000000000000
 O    1.835271694232   -0.564788702012    0.000000000000
LI    6.485271694232    7.489247553183    0.000000000000
