13

 C   -2.386255552848   -0.570861700097    0.000000000000
 H   -3.481773552848   -0.570861700097    0.000000000000
 C   -1.654788552848    0.639120299903    0.000000000000
 H   -2.192671552848    1.597739299903    0.000000000000
 C   -1.654788552848   -1.780844700097    0.000000000000
 H   -2.192670552848   -2.739463700097    0.000000000000
 C   -0.249618552848    0.644235299903    0.000000000000
 H    0.297011447152    1.596393299903    0.000000000000
 C   -0.249618552848   -1.785958700097    0.000000000000
 H    0.297011447152   -2.738115700097    0.000000000000
 C    0.545418447152   -0.570861700097    0.000000000000
 O    1.831765447152   -0.570861700097    0.000000000000
LI    6.531765447152    7.569777095476    0.000000000000
