26

 C    3.014943841272    1.339673135323    0.000000000000
 H    2.264813841272    2.137593135323    0.000000000000
 H    3.655513841272    1.444593135323    0.888120000000
 H    3.655513841272    1.444593135323   -0.888120000000
 C    2.330983841272   -0.004076864677    0.000000000000
 O    1.053443841272   -0.109186864677    0.000000000000
 N    3.096113841272   -1.090926864677    0.000000000000
 H    4.103523841272   -0.959166864677    0.000000000000
 C    2.563183841272   -2.456216864677    0.000000000000
 H    1.952973841272   -2.626046864677    0.896530000000
 H    1.952973841272   -2.626046864677   -0.896530000000
 H    3.405433841272   -3.154996864677    0.000000000000
NA   -0.502826158728    0.052113135323    1.652540000000
NA   -0.502826158728    0.052113135323   -1.652540000000
 O   -0.736964873396    0.076384238793    0.000000000000
 C   -2.014508176136   -0.028726032941    0.000000000000
 C   -2.698470971979   -1.372472933924    0.000000000000
 H   -1.948350358066   -2.170390590755    0.000000000000
 H   -3.339046547114   -1.477393819220   -0.888124170862
 H   -3.339046547114   -1.477393819220    0.888124170862
 N   -2.779627193825    1.058131477292    0.000000000000
 H   -3.787047426465    0.926372322515    0.000000000000
 C   -2.246699084605    2.423415441346    0.000000000000
 H   -1.636482721386    2.593250877133   -0.896526161867
 H   -1.636482721386    2.593250877133    0.896526161867
 H   -3.088950427936    3.122201636657    0.000000000000
