26

 C    3.052772655456    1.335752279301    0.000000000000
 H    2.302642655456    2.133672279301    0.000000000000
 H    3.693342655456    1.440672279301    0.888120000000
 H    3.693342655456    1.440672279301   -0.888120000000
 C    2.368812655456   -0.007997720699    0.000000000000
 O    1.091272655456   -0.113107720699    0.000000000000
 N    3.133942655456   -1.094847720699    0.000000000000
 H    4.141352655456   -0.963087720699    0.000000000000
 C    2.601012655456   -2.460137720699    0.000000000000
 H    1.990802655456   -2.629967720699    0.896530000000
 H    1.990802655456   -2.629967720699   -0.896530000000
 H    3.443262655456   -3.158917720699    0.000000000000
NA   -0.464997344544    0.048192279301    1.652540000000
NA   -0.464997344544    0.048192279301   -1.652540000000
 O   -0.798603210026    0.082772888519    0.000000000000
 C   -2.076146512766   -0.022337383214    0.000000000000
 C   -2.760109308609   -1.366084284198    0.000000000000
 H   -2.009988694696   -2.164001941029    0.000000000000
 H   -3.400684883744   -1.471005169493   -0.888124170862
 H   -3.400684883744   -1.471005169493    0.888124170862
 N   -2.841265530455    1.064520127018    0.000000000000
 H   -3.848685763095    0.932760972241    0.000000000000
 C   -2.308337421235    2.429804091073    0.000000000000
 H   -1.698121058017    2.599639526859   -0.896526161867
 H   -1.698121058017    2.599639526859    0.896526161867
 H   -3.150588764567    3.128590286383    0.000000000000
