26

 C    3.090601469640    1.331831423279    0.000000000000
 H    2.340471469640    2.129751423279    0.000000000000
 H    3.731171469640    1.436751423279    0.888120000000
 H    3.731171469640    1.436751423279   -0.888120000000
 C    2.406641469640   -0.011918576721    0.000000000000
 O    1.129101469640   -0.117028576721    0.000000000000
 N    3.171771469640   -1.098768576721    0.000000000000
 H    4.179181469640   -0.967008576721    0.000000000000
 C    2.638841469640   -2.464058576721    0.000000000000
 H    2.028631469640   -2.633888576721    0.896530000000
 H    2.028631469640   -2.633888576721   -0.896530000000
 H    3.481091469640   -3.162838576721    0.000000000000
NA   -0.427168530360    0.044271423279    1.652540000000
NA   -0.427168530360    0.044271423279   -1.652540000000
 O   -0.860241546657    0.089161538246    0.000000000000
 C   -2.137784849397   -0.015948733488    0.000000000000
 C   -2.821747645240   -1.359695634472    0.000000000000
 H   -2.071627031327   -2.157613291303    0.000000000000
 H   -3.462323220375   -1.464616519767   -0.888124170862
 H   -3.462323220375   -1.464616519767    0.888124170862
 N   -2.902903867086    1.070908776745    0.000000000000
 H   -3.910324099725    0.939149621967    0.000000000000
 C   -2.369975757866    2.436192740799    0.000000000000
 H   -1.759759394647    2.606028176585   -0.896526161867
 H   -1.759759394647    2.606028176585    0.896526161867
 H   -3.212227101197    3.134978936109    0.000000000000
