26

 C    3.355403168931    1.304385431123    0.000000000000
 H    2.605273168931    2.102305431123    0.000000000000
 H    3.995973168931    1.409305431123    0.888120000000
 H    3.995973168931    1.409305431123   -0.888120000000
 C    2.671443168931   -0.039364568877    0.000000000000
 O    1.393903168931   -0.144474568877    0.000000000000
 N    3.436573168931   -1.126214568877    0.000000000000
 H    4.443983168931   -0.994454568877    0.000000000000
 C    2.903643168931   -2.491504568877    0.000000000000
 H    2.293433168931   -2.661334568877    0.896530000000
 H    2.293433168931   -2.661334568877   -0.896530000000
 H    3.745893168931   -3.190284568877    0.000000000000
NA   -0.162366831069    0.016825431123    1.652540000000
NA   -0.162366831069    0.016825431123   -1.652540000000
 O   -1.291709903070    0.133882086328    0.000000000000
 C   -2.569253205810    0.028771814594    0.000000000000
 C   -3.253216001653   -1.314975086389    0.000000000000
 H   -2.503095387740   -2.112892743220    0.000000000000
 H   -3.893791576788   -1.419895971685   -0.888124170862
 H   -3.893791576788   -1.419895971685    0.888124170862
 N   -3.334372223499    1.115629324827    0.000000000000
 H   -4.341792456139    0.983870170050    0.000000000000
 C   -2.801444114279    2.480913288881    0.000000000000
 H   -2.191227751060    2.650748724668   -0.896526161867
 H   -2.191227751060    2.650748724668    0.896526161867
 H   -3.643695457610    3.179699484192    0.000000000000
