26

 C    3.468889611484    1.292622863056    0.000000000000
 H    2.718759611484    2.090542863056    0.000000000000
 H    4.109459611484    1.397542863056    0.888120000000
 H    4.109459611484    1.397542863056   -0.888120000000
 C    2.784929611484   -0.051127136944    0.000000000000
 O    1.507389611484   -0.156237136944    0.000000000000
 N    3.550059611484   -1.137977136944    0.000000000000
 H    4.557469611484   -1.006217136944    0.000000000000
 C    3.017129611484   -2.503267136944    0.000000000000
 H    2.406919611484   -2.673097136944    0.896530000000
 H    2.406919611484   -2.673097136944   -0.896530000000
 H    3.859379611484   -3.202047136944    0.000000000000
NA   -0.048880388516    0.005062863056    1.652540000000
NA   -0.048880388516    0.005062863056   -1.652540000000
 O   -1.476624912961    0.153048035507    0.000000000000
 C   -2.754168215701    0.047937763773    0.000000000000
 C   -3.438131011544   -1.295809137211    0.000000000000
 H   -2.688010397631   -2.093726794042    0.000000000000
 H   -4.078706586679   -1.400730022506   -0.888124170862
 H   -4.078706586679   -1.400730022506    0.888124170862
 N   -3.519287233390    1.134795274006    0.000000000000
 H   -4.526707466030    1.003036119228    0.000000000000
 C   -2.986359124170    2.500079238060    0.000000000000
 H   -2.376142760952    2.669914673846   -0.896526161867
 H   -2.376142760952    2.669914673846    0.896526161867
 H   -3.828610467502    3.198865433370    0.000000000000
