26

 C    3.506718425669    1.288702007034    0.000000000000
 H    2.756588425669    2.086622007034    0.000000000000
 H    4.147288425669    1.393622007034    0.888120000000
 H    4.147288425669    1.393622007034   -0.888120000000
 C    2.822758425669   -0.055047992966    0.000000000000
 O    1.545218425669   -0.160157992966    0.000000000000
 N    3.587888425669   -1.141897992966    0.000000000000
 H    4.595298425669   -1.010137992966    0.000000000000
 C    3.054958425669   -2.507187992966    0.000000000000
 H    2.444748425669   -2.677017992966    0.896530000000
 H    2.444748425669   -2.677017992966   -0.896530000000
 H    3.897208425669   -3.205967992966    0.000000000000
NA   -0.011051574331    0.001142007034    1.652540000000
NA   -0.011051574331    0.001142007034   -1.652540000000
 O   -1.538263249592    0.159436685233    0.000000000000
 C   -2.815806552332    0.054326413499    0.000000000000
 C   -3.499769348175   -1.289420487485    0.000000000000
 H   -2.749648734262   -2.087338144316    0.000000000000
 H   -4.140344923310   -1.394341372780   -0.888124170862
 H   -4.140344923310   -1.394341372780    0.888124170862
 N   -3.580925570020    1.141183923732    0.000000000000
 H   -4.588345802660    1.009424768954    0.000000000000
 C   -3.047997460801    2.506467887786    0.000000000000
 H   -2.437781097582    2.676303323572   -0.896526161867
 H   -2.437781097582    2.676303323572    0.896526161867
 H   -3.890248804132    3.205254083096    0.000000000000
