26

 C    3.582376054038    1.280860294990    0.000000000000
 H    2.832246054038    2.078780294990    0.000000000000
 H    4.222946054038    1.385780294990    0.888120000000
 H    4.222946054038    1.385780294990   -0.888120000000
 C    2.898416054038   -0.062889705010    0.000000000000
 O    1.620876054038   -0.167999705010    0.000000000000
 N    3.663546054038   -1.149739705010    0.000000000000
 H    4.670956054038   -1.017979705010    0.000000000000
 C    3.130616054038   -2.515029705010    0.000000000000
 H    2.520406054038   -2.684859705010    0.896530000000
 H    2.520406054038   -2.684859705010   -0.896530000000
 H    3.972866054038   -3.213809705010    0.000000000000
NA    0.064606054038   -0.006699705010    1.652540000000
NA    0.064606054038   -0.006699705010   -1.652540000000
 O   -1.661539922852    0.172213984685    0.000000000000
 C   -2.939083225593    0.067103712951    0.000000000000
 C   -3.623046021436   -1.276643188032    0.000000000000
 H   -2.872925407523   -2.074560844863    0.000000000000
 H   -4.263621596570   -1.381564073328   -0.888124170862
 H   -4.263621596570   -1.381564073328    0.888124170862
 N   -3.704202243281    1.153961223184    0.000000000000
 H   -4.711622475921    1.022202068407    0.000000000000
 C   -3.171274134062    2.519245187238    0.000000000000
 H   -2.561057770843    2.689080623024   -0.896526161867
 H   -2.561057770843    2.689080623024    0.896526161867
 H   -4.013525477393    3.218031382549    0.000000000000
