26

 C    3.847177753329    1.253414302834    0.000000000000
 H    3.097047753329    2.051334302834    0.000000000000
 H    4.487747753329    1.358334302834    0.888120000000
 H    4.487747753329    1.358334302834   -0.888120000000
 C    3.163217753329   -0.090335697166    0.000000000000
 O    1.885677753329   -0.195445697166    0.000000000000
 N    3.928347753329   -1.177185697166    0.000000000000
 H    4.935757753329   -1.045425697166    0.000000000000
 C    3.395417753329   -2.542475697166    0.000000000000
 H    2.785207753329   -2.712305697166    0.896530000000
 H    2.785207753329   -2.712305697166   -0.896530000000
 H    4.237667753329   -3.241255697166    0.000000000000
NA    0.329407753329   -0.034145697166    1.652540000000
NA    0.329407753329   -0.034145697166   -1.652540000000
 O   -2.093008279266    0.216934532768    0.000000000000
 C   -3.370551582006    0.111824261034    0.000000000000
 C   -4.054514377849   -1.231922639950    0.000000000000
 H   -3.304393763936   -2.029840296781    0.000000000000
 H   -4.695089952984   -1.336843525245   -0.888124170862
 H   -4.695089952984   -1.336843525245    0.888124170862
 N   -4.135670599694    1.198681771267    0.000000000000
 H   -5.143090832334    1.066922616489    0.000000000000
 C   -3.602742490475    2.563965735321    0.000000000000
 H   -2.992526127256    2.733801171107   -0.896526161867
 H   -2.992526127256    2.733801171107    0.896526161867
 H   -4.444993833806    3.262751930631    0.000000000000
