26

 C    3.885006567513    1.249493446812    0.000000000000
 H    3.134876567513    2.047413446812    0.000000000000
 H    4.525576567513    1.354413446812    0.888120000000
 H    4.525576567513    1.354413446812   -0.888120000000
 C    3.201046567513   -0.094256553188    0.000000000000
 O    1.923506567513   -0.199366553188    0.000000000000
 N    3.966176567513   -1.181106553188    0.000000000000
 H    4.973586567513   -1.049346553188    0.000000000000
 C    3.433246567513   -2.546396553188    0.000000000000
 H    2.823036567513   -2.716226553188    0.896530000000
 H    2.823036567513   -2.716226553188   -0.896530000000
 H    4.275496567513   -3.245176553188    0.000000000000
NA    0.367236567513   -0.038066553188    1.652540000000
NA    0.367236567513   -0.038066553188   -1.652540000000
 O   -2.154646615896    0.223323182494    0.000000000000
 C   -3.432189918636    0.118212910760    0.000000000000
 C   -4.116152714479   -1.225533990223    0.000000000000
 H   -3.366032100566   -2.023451647055    0.000000000000
 H   -4.756728289614   -1.330454875519   -0.888124170862
 H   -4.756728289614   -1.330454875519    0.888124170862
 N   -4.197308936325    1.205070420993    0.000000000000
 H   -5.204729168965    1.073311266216    0.000000000000
 C   -3.664380827105    2.570354385047    0.000000000000
 H   -3.054164463887    2.740189820833   -0.896526161867
 H   -3.054164463887    2.740189820833    0.896526161867
 H   -4.506632170436    3.269140580357    0.000000000000
