26

 C    3.922835381697    1.245572590789    0.000000000000
 H    3.172705381697    2.043492590789    0.000000000000
 H    4.563405381697    1.350492590789    0.888120000000
 H    4.563405381697    1.350492590789   -0.888120000000
 C    3.238875381697   -0.098177409211    0.000000000000
 O    1.961335381697   -0.203287409211    0.000000000000
 N    4.004005381697   -1.185027409211    0.000000000000
 H    5.011415381697   -1.053267409211    0.000000000000
 C    3.471075381697   -2.550317409211    0.000000000000
 H    2.860865381697   -2.720147409211    0.896530000000
 H    2.860865381697   -2.720147409211   -0.896530000000
 H    4.313325381697   -3.249097409211    0.000000000000
NA    0.405065381697   -0.041987409211    1.652540000000
NA    0.405065381697   -0.041987409211   -1.652540000000
 O   -2.216284952526    0.229711832220    0.000000000000
 C   -3.493828255267    0.124601560486    0.000000000000
 C   -4.177791051110   -1.219145340497    0.000000000000
 H   -3.427670437197   -2.017062997328    0.000000000000
 H   -4.818366626244   -1.324066225793   -0.888124170862
 H   -4.818366626244   -1.324066225793    0.888124170862
 N   -4.258947272955    1.211459070719    0.000000000000
 H   -5.266367505595    1.079699915942    0.000000000000
 C   -3.726019163736    2.576743034773    0.000000000000
 H   -3.115802800517    2.746578470559   -0.896526161867
 H   -3.115802800517    2.746578470559    0.896526161867
 H   -4.568270507067    3.275529230084    0.000000000000
