26

 C    3.960664195882    1.241651734767    0.000000000000
 H    3.210534195882    2.039571734767    0.000000000000
 H    4.601234195882    1.346571734767    0.888120000000
 H    4.601234195882    1.346571734767   -0.888120000000
 C    3.276704195882   -0.102098265233    0.000000000000
 O    1.999164195882   -0.207208265233    0.000000000000
 N    4.041834195882   -1.188948265233    0.000000000000
 H    5.049244195882   -1.057188265233    0.000000000000
 C    3.508904195882   -2.554238265233    0.000000000000
 H    2.898694195882   -2.724068265233    0.896530000000
 H    2.898694195882   -2.724068265233   -0.896530000000
 H    4.351154195882   -3.253018265233    0.000000000000
NA    0.442894195882   -0.045908265233    1.652540000000
NA    0.442894195882   -0.045908265233   -1.652540000000
 O   -2.277923289157    0.236100481946    0.000000000000
 C   -3.555466591897    0.130990210212    0.000000000000
 C   -4.239429387740   -1.212756690771    0.000000000000
 H   -3.489308773827   -2.010674347602    0.000000000000
 H   -4.880004962875   -1.317677576067   -0.888124170862
 H   -4.880004962875   -1.317677576067    0.888124170862
 N   -4.320585609586    1.217847720445    0.000000000000
 H   -5.328005842226    1.086088565668    0.000000000000
 C   -3.787657500366    2.583131684499    0.000000000000
 H   -3.177441137147    2.752967120285   -0.896526161867
 H   -3.177441137147    2.752967120285    0.896526161867
 H   -4.629908843697    3.281917879810    0.000000000000
