26

 C    4.036321824251    1.233810022723    0.000000000000
 H    3.286191824251    2.031730022723    0.000000000000
 H    4.676891824251    1.338730022723    0.888120000000
 H    4.676891824251    1.338730022723   -0.888120000000
 C    3.352361824251   -0.109939977277    0.000000000000
 O    2.074821824251   -0.215049977277    0.000000000000
 N    4.117491824251   -1.196789977277    0.000000000000
 H    5.124901824251   -1.065029977277    0.000000000000
 C    3.584561824251   -2.562079977277    0.000000000000
 H    2.974351824251   -2.731909977277    0.896530000000
 H    2.974351824251   -2.731909977277   -0.896530000000
 H    4.426811824251   -3.260859977277    0.000000000000
NA    0.518551824251   -0.053749977277    1.652540000000
NA    0.518551824251   -0.053749977277   -1.652540000000
 O   -2.401199962418    0.248877781398    0.000000000000
 C   -3.678743265158    0.143767509664    0.000000000000
 C   -4.362706061001   -1.199979391319    0.000000000000
 H   -3.612585447088   -1.997897048150    0.000000000000
 H   -5.003281636136   -1.304900276615   -0.888124170862
 H   -5.003281636136   -1.304900276615    0.888124170862
 N   -4.443862282847    1.230625019897    0.000000000000
 H   -5.451282515487    1.098865865120    0.000000000000
 C   -3.910934173627    2.595908983951    0.000000000000
 H   -3.300717810408    2.765744419738   -0.896526161867
 H   -3.300717810408    2.765744419738    0.896526161867
 H   -4.753185516958    3.294695179262    0.000000000000
