26

 C    4.074150638435    1.229889166700    0.000000000000
 H    3.324020638435    2.027809166700    0.000000000000
 H    4.714720638435    1.334809166700    0.888120000000
 H    4.714720638435    1.334809166700   -0.888120000000
 C    3.390190638435   -0.113860833300    0.000000000000
 O    2.112650638435   -0.218970833300    0.000000000000
 N    4.155320638435   -1.200710833300    0.000000000000
 H    5.162730638435   -1.068950833300    0.000000000000
 C    3.622390638435   -2.566000833300    0.000000000000
 H    3.012180638435   -2.735830833300    0.896530000000
 H    3.012180638435   -2.735830833300   -0.896530000000
 H    4.464640638435   -3.264780833300    0.000000000000
NA    0.556380638435   -0.057670833300    1.652540000000
NA    0.556380638435   -0.057670833300   -1.652540000000
 O   -2.462838299048    0.255266431124    0.000000000000
 C   -3.740381601788    0.150156159390    0.000000000000
 C   -4.424344397631   -1.193590741593    0.000000000000
 H   -3.674223783718   -1.991508398424    0.000000000000
 H   -5.064919972766   -1.298511626889   -0.888124170862
 H   -5.064919972766   -1.298511626889    0.888124170862
 N   -4.505500619477    1.237013669623    0.000000000000
 H   -5.512920852117    1.105254514846    0.000000000000
 C   -3.972572510257    2.602297633678    0.000000000000
 H   -3.362356147039    2.772133069464   -0.896526161867
 H   -3.362356147039    2.772133069464    0.896526161867
 H   -4.814823853589    3.301083828988    0.000000000000
