26

 C    4.111979452619    1.225968310678    0.000000000000
 H    3.361849452619    2.023888310678    0.000000000000
 H    4.752549452619    1.330888310678    0.888120000000
 H    4.752549452619    1.330888310678   -0.888120000000
 C    3.428019452619   -0.117781689322    0.000000000000
 O    2.150479452619   -0.222891689322    0.000000000000
 N    4.193149452619   -1.204631689322    0.000000000000
 H    5.200559452619   -1.072871689322    0.000000000000
 C    3.660219452619   -2.569921689322    0.000000000000
 H    3.050009452619   -2.739751689322    0.896530000000
 H    3.050009452619   -2.739751689322   -0.896530000000
 H    4.502469452619   -3.268701689322    0.000000000000
NA    0.594209452619   -0.061591689322    1.652540000000
NA    0.594209452619   -0.061591689322   -1.652540000000
 O   -2.524476635679    0.261655080851    0.000000000000
 C   -3.802019938419    0.156544809117    0.000000000000
 C   -4.485982734262   -1.187202091867    0.000000000000
 H   -3.735862120349   -1.985119748698    0.000000000000
 H   -5.126558309397   -1.292122977162   -0.888124170862
 H   -5.126558309397   -1.292122977162    0.888124170862
 N   -4.567138956108    1.243402319349    0.000000000000
 H   -5.574559188748    1.111643164572    0.000000000000
 C   -4.034210846888    2.608686283404    0.000000000000
 H   -3.423994483669    2.778521719190   -0.896526161867
 H   -3.423994483669    2.778521719190    0.896526161867
 H   -4.876462190219    3.307472478714    0.000000000000
