26

 C    4.263294709357    1.210284886589    0.000000000000
 H    3.513164709357    2.008204886589    0.000000000000
 H    4.903864709357    1.315204886589    0.888120000000
 H    4.903864709357    1.315204886589   -0.888120000000
 C    3.579334709357   -0.133465113411    0.000000000000
 O    2.301794709357   -0.238575113411    0.000000000000
 N    4.344464709357   -1.220315113411    0.000000000000
 H    5.351874709357   -1.088555113411    0.000000000000
 C    3.811534709357   -2.585605113411    0.000000000000
 H    3.201324709357   -2.755435113411    0.896530000000
 H    3.201324709357   -2.755435113411   -0.896530000000
 H    4.653784709357   -3.284385113411    0.000000000000
NA    0.745524709357   -0.077275113411    1.652540000000
NA    0.745524709357   -0.077275113411   -1.652540000000
 O   -2.771029982200    0.287209679755    0.000000000000
 C   -4.048573284941    0.182099408021    0.000000000000
 C   -4.732536080784   -1.161647492962    0.000000000000
 H   -3.982415466871   -1.959565149793    0.000000000000
 H   -5.373111655918   -1.266568378258   -0.888124170862
 H   -5.373111655918   -1.266568378258    0.888124170862
 N   -4.813692302629    1.268956918254    0.000000000000
 H   -5.821112535269    1.137197763477    0.000000000000
 C   -4.280764193410    2.634240882308    0.000000000000
 H   -3.670547830191    2.804076318094   -0.896526161867
 H   -3.670547830191    2.804076318094    0.896526161867
 H   -5.123015536741    3.333027077619    0.000000000000
