26

 C    4.338952337726    1.202443174545    0.000000000000
 H    3.588822337726    2.000363174545    0.000000000000
 H    4.979522337726    1.307363174545    0.888120000000
 H    4.979522337726    1.307363174545   -0.888120000000
 C    3.654992337726   -0.141306825455    0.000000000000
 O    2.377452337726   -0.246416825455    0.000000000000
 N    4.420122337726   -1.228156825455    0.000000000000
 H    5.427532337726   -1.096396825455    0.000000000000
 C    3.887192337726   -2.593446825455    0.000000000000
 H    3.276982337726   -2.763276825455    0.896530000000
 H    3.276982337726   -2.763276825455   -0.896530000000
 H    4.729442337726   -3.292226825455    0.000000000000
NA    0.821182337726   -0.085116825455    1.652540000000
NA    0.821182337726   -0.085116825455   -1.652540000000
 O   -2.894306655461    0.299986979207    0.000000000000
 C   -4.171849958201    0.194876707473    0.000000000000
 C   -4.855812754045   -1.148870193510    0.000000000000
 H   -4.105692140132   -1.946787850341    0.000000000000
 H   -5.496388329179   -1.253791078806   -0.888124170862
 H   -5.496388329179   -1.253791078806    0.888124170862
 N   -4.936968975890    1.281734217706    0.000000000000
 H   -5.944389208530    1.149975062929    0.000000000000
 C   -4.404040866670    2.647018181760    0.000000000000
 H   -3.793824503452    2.816853617546   -0.896526161867
 H   -3.793824503452    2.816853617546    0.896526161867
 H   -5.246292210002    3.345804377071    0.000000000000
