26

 C    4.414609966095    1.194601462500    0.000000000000
 H    3.664479966095    1.992521462500    0.000000000000
 H    5.055179966095    1.299521462500    0.888120000000
 H    5.055179966095    1.299521462500   -0.888120000000
 C    3.730649966095   -0.149148537500    0.000000000000
 O    2.453109966095   -0.254258537500    0.000000000000
 N    4.495779966095   -1.235998537500    0.000000000000
 H    5.503189966095   -1.104238537500    0.000000000000
 C    3.962849966095   -2.601288537500    0.000000000000
 H    3.352639966095   -2.771118537500    0.896530000000
 H    3.352639966095   -2.771118537500   -0.896530000000
 H    4.805099966095   -3.300068537500    0.000000000000
NA    0.896839966095   -0.092958537500    1.652540000000
NA    0.896839966095   -0.092958537500   -1.652540000000
 O   -3.017583328722    0.312764278659    0.000000000000
 C   -4.295126631462    0.207654006925    0.000000000000
 C   -4.979089427305   -1.136092894058    0.000000000000
 H   -4.228968813392   -1.934010550889    0.000000000000
 H   -5.619665002440   -1.241013779354   -0.888124170862
 H   -5.619665002440   -1.241013779354    0.888124170862
 N   -5.060245649151    1.294511517158    0.000000000000
 H   -6.067665881791    1.162752362381    0.000000000000
 C   -4.527317539931    2.659795481212    0.000000000000
 H   -3.917101176713    2.829630916999   -0.896526161867
 H   -3.917101176713    2.829630916999    0.896526161867
 H   -5.369568883263    3.358581676523    0.000000000000
