26

 C    4.490267594463    1.186759750456    0.000000000000
 H    3.740137594463    1.984679750456    0.000000000000
 H    5.130837594463    1.291679750456    0.888120000000
 H    5.130837594463    1.291679750456   -0.888120000000
 C    3.806307594463   -0.156990249544    0.000000000000
 O    2.528767594463   -0.262100249544    0.000000000000
 N    4.571437594463   -1.243840249544    0.000000000000
 H    5.578847594463   -1.112080249544    0.000000000000
 C    4.038507594463   -2.609130249544    0.000000000000
 H    3.428297594463   -2.778960249544    0.896530000000
 H    3.428297594463   -2.778960249544   -0.896530000000
 H    4.880757594463   -3.307910249544    0.000000000000
NA    0.972497594463   -0.100800249544    1.652540000000
NA    0.972497594463   -0.100800249544   -1.652540000000
 O   -3.140860001983    0.325541578112    0.000000000000
 C   -4.418403304723    0.220431306378    0.000000000000
 C   -5.102366100566   -1.123315594606    0.000000000000
 H   -4.352245486653   -1.921233251437    0.000000000000
 H   -5.742941675701   -1.228236479901   -0.888124170862
 H   -5.742941675701   -1.228236479901    0.888124170862
 N   -5.183522322412    1.307288816611    0.000000000000
 H   -6.190942555052    1.175529661833    0.000000000000
 C   -4.650594213192    2.672572780665    0.000000000000
 H   -4.040377849974    2.842408216451   -0.896526161867
 H   -4.040377849974    2.842408216451    0.896526161867
 H   -5.492845556524    3.371358975975    0.000000000000
