26

 C    4.717240479570    1.163234614322    0.000000000000
 H    3.967110479570    1.961154614322    0.000000000000
 H    5.357810479570    1.268154614322    0.888120000000
 H    5.357810479570    1.268154614322   -0.888120000000
 C    4.033280479570   -0.180515385678    0.000000000000
 O    2.755740479570   -0.285625385678    0.000000000000
 N    4.798410479570   -1.267365385678    0.000000000000
 H    5.805820479570   -1.135605385678    0.000000000000
 C    4.265480479570   -2.632655385678    0.000000000000
 H    3.655270479570   -2.802485385678    0.896530000000
 H    3.655270479570   -2.802485385678   -0.896530000000
 H    5.107730479570   -3.331435385678    0.000000000000
NA    1.199470479570   -0.124325385678    1.652540000000
NA    1.199470479570   -0.124325385678   -1.652540000000
 O   -3.510690021766    0.363873476468    0.000000000000
 C   -4.788233324506    0.258763204734    0.000000000000
 C   -5.472196120349   -1.084983696249    0.000000000000
 H   -4.722075506436   -1.882901353080    0.000000000000
 H   -6.112771695484   -1.189904581545   -0.888124170862
 H   -6.112771695484   -1.189904581545    0.888124170862
 N   -5.553352342195    1.345620714967    0.000000000000
 H   -6.560772574835    1.213861560190    0.000000000000
 C   -5.020424232975    2.710904679021    0.000000000000
 H   -4.410207869756    2.880740114808   -0.896526161867
 H   -4.410207869756    2.880740114808    0.896526161867
 H   -5.862675576306    3.409690874332    0.000000000000
