26

 C    4.792898107939    1.155392902278    0.000000000000
 H    4.042768107939    1.953312902278    0.000000000000
 H    5.433468107939    1.260312902278    0.888120000000
 H    5.433468107939    1.260312902278   -0.888120000000
 C    4.108938107939   -0.188357097722    0.000000000000
 O    2.831398107939   -0.293467097722    0.000000000000
 N    4.874068107939   -1.275207097722    0.000000000000
 H    5.881478107939   -1.143447097722    0.000000000000
 C    4.341138107939   -2.640497097722    0.000000000000
 H    3.730928107939   -2.810327097722    0.896530000000
 H    3.730928107939   -2.810327097722   -0.896530000000
 H    5.183388107939   -3.339277097722    0.000000000000
NA    1.275128107939   -0.132167097722    1.652540000000
NA    1.275128107939   -0.132167097722   -1.652540000000
 O   -3.633966695027    0.376650775920    0.000000000000
 C   -4.911509997767    0.271540504186    0.000000000000
 C   -5.595472793610   -1.072206396797    0.000000000000
 H   -4.845352179697   -1.870124053628    0.000000000000
 H   -6.236048368745   -1.177127282093   -0.888124170862
 H   -6.236048368745   -1.177127282093    0.888124170862
 N   -5.676629015456    1.358398014419    0.000000000000
 H   -6.684049248096    1.226638859642    0.000000000000
 C   -5.143700906236    2.723681978474    0.000000000000
 H   -4.533484543017    2.893517414260   -0.896526161867
 H   -4.533484543017    2.893517414260    0.896526161867
 H   -5.985952249567    3.422468173784    0.000000000000
