26

 C    4.906384550492    1.143630334211    0.000000000000
 H    4.156254550492    1.941550334211    0.000000000000
 H    5.546954550492    1.248550334211    0.888120000000
 H    5.546954550492    1.248550334211   -0.888120000000
 C    4.222424550492   -0.200119665789    0.000000000000
 O    2.944884550492   -0.305229665789    0.000000000000
 N    4.987554550492   -1.286969665789    0.000000000000
 H    5.994964550492   -1.155209665789    0.000000000000
 C    4.454624550492   -2.652259665789    0.000000000000
 H    3.844414550492   -2.822089665789    0.896530000000
 H    3.844414550492   -2.822089665789   -0.896530000000
 H    5.296874550492   -3.351039665789    0.000000000000
NA    1.388614550492   -0.143929665789    1.652540000000
NA    1.388614550492   -0.143929665789   -1.652540000000
 O   -3.818881704918    0.395816725099    0.000000000000
 C   -5.096425007658    0.290706453365    0.000000000000
 C   -5.780387803501   -1.053040447619    0.000000000000
 H   -5.030267189588   -1.850958104450    0.000000000000
 H   -6.420963378636   -1.157961332914   -0.888124170862
 H   -6.420963378636   -1.157961332914    0.888124170862
 N   -5.861544025347    1.377563963598    0.000000000000
 H   -6.868964257987    1.245804808820    0.000000000000
 C   -5.328615916127    2.742847927652    0.000000000000
 H   -4.718399552909    2.912683363438   -0.896526161867
 H   -4.718399552909    2.912683363438    0.896526161867
 H   -6.170867259459    3.441634122962    0.000000000000
