26

 C    5.019870993045    1.131867766145    0.000000000000
 H    4.269740993045    1.929787766145    0.000000000000
 H    5.660440993045    1.236787766145    0.888120000000
 H    5.660440993045    1.236787766145   -0.888120000000
 C    4.335910993045   -0.211882233855    0.000000000000
 O    3.058370993045   -0.316992233855    0.000000000000
 N    5.101040993045   -1.298732233855    0.000000000000
 H    6.108450993045   -1.166972233855    0.000000000000
 C    4.568110993045   -2.664022233855    0.000000000000
 H    3.957900993045   -2.833852233855    0.896530000000
 H    3.957900993045   -2.833852233855   -0.896530000000
 H    5.410360993045   -3.362802233855    0.000000000000
NA    1.502100993045   -0.155692233855    1.652540000000
NA    1.502100993045   -0.155692233855   -1.652540000000
 O   -4.003796714809    0.414982674277    0.000000000000
 C   -5.281340017549    0.309872402543    0.000000000000
 C   -5.965302813393   -1.033874498440    0.000000000000
 H   -5.215182199480   -1.831792155271    0.000000000000
 H   -6.605878388527   -1.138795383736   -0.888124170862
 H   -6.605878388527   -1.138795383736    0.888124170862
 N   -6.046459035238    1.396729912776    0.000000000000
 H   -7.053879267878    1.264970757999    0.000000000000
 C   -5.513530926018    2.762013876830    0.000000000000
 H   -4.903314562800    2.931849312616   -0.896526161867
 H   -4.903314562800    2.931849312616    0.896526161867
 H   -6.355782269350    3.460800072141    0.000000000000
