26

 C    5.095528621414    1.124026054100    0.000000000000
 H    4.345398621414    1.921946054100    0.000000000000
 H    5.736098621414    1.228946054100    0.888120000000
 H    5.736098621414    1.228946054100   -0.888120000000
 C    4.411568621414   -0.219723945900    0.000000000000
 O    3.134028621414   -0.324833945900    0.000000000000
 N    5.176698621414   -1.306573945900    0.000000000000
 H    6.184108621414   -1.174813945900    0.000000000000
 C    4.643768621414   -2.671863945900    0.000000000000
 H    4.033558621414   -2.841693945900    0.896530000000
 H    4.033558621414   -2.841693945900   -0.896530000000
 H    5.486018621414   -3.370643945900    0.000000000000
NA    1.577758621414   -0.163533945900    1.652540000000
NA    1.577758621414   -0.163533945900   -1.652540000000
 O   -4.127073388070    0.427759973729    0.000000000000
 C   -5.404616690810    0.322649701995    0.000000000000
 C   -6.088579486654   -1.021097198988    0.000000000000
 H   -5.338458872740   -1.819014855819    0.000000000000
 H   -6.729155061788   -1.126018084284   -0.888124170862
 H   -6.729155061788   -1.126018084284    0.888124170862
 N   -6.169735708499    1.409507212228    0.000000000000
 H   -7.177155941139    1.277748057451    0.000000000000
 C   -5.636807599279    2.774791176282    0.000000000000
 H   -5.026591236061    2.944626612069   -0.896526161867
 H   -5.026591236061    2.944626612069    0.896526161867
 H   -6.479058942611    3.473577371593    0.000000000000
