26

 C    5.246843878152    1.108342630011    0.000000000000
 H    4.496713878152    1.906262630011    0.000000000000
 H    5.887413878152    1.213262630011    0.888120000000
 H    5.887413878152    1.213262630011   -0.888120000000
 C    4.562883878152   -0.235407369989    0.000000000000
 O    3.285343878152   -0.340517369989    0.000000000000
 N    5.328013878152   -1.322257369989    0.000000000000
 H    6.335423878152   -1.190497369989    0.000000000000
 C    4.795083878152   -2.687547369989    0.000000000000
 H    4.184873878152   -2.857377369989    0.896530000000
 H    4.184873878152   -2.857377369989   -0.896530000000
 H    5.637333878152   -3.386327369989    0.000000000000
NA    1.729073878152   -0.179217369989    1.652540000000
NA    1.729073878152   -0.179217369989   -1.652540000000
 O   -4.373626734592    0.453314572634    0.000000000000
 C   -5.651170037332    0.348204300900    0.000000000000
 C   -6.335132833175   -0.995542600084    0.000000000000
 H   -5.585012219262   -1.793460256915    0.000000000000
 H   -6.975708408310   -1.100463485379   -0.888124170862
 H   -6.975708408310   -1.100463485379    0.888124170862
 N   -6.416289055021    1.435061811133    0.000000000000
 H   -7.423709287661    1.303302656355    0.000000000000
 C   -5.883360945801    2.800345775187    0.000000000000
 H   -5.273144582583    2.970181210973   -0.896526161867
 H   -5.273144582583    2.970181210973    0.896526161867
 H   -6.725612289133    3.499131970497    0.000000000000
