26

 C    5.284672692336    1.104421773989    0.000000000000
 H    4.534542692336    1.902341773989    0.000000000000
 H    5.925242692336    1.209341773989    0.888120000000
 H    5.925242692336    1.209341773989   -0.888120000000
 C    4.600712692336   -0.239328226011    0.000000000000
 O    3.323172692336   -0.344438226011    0.000000000000
 N    5.365842692336   -1.326178226011    0.000000000000
 H    6.373252692336   -1.194418226011    0.000000000000
 C    4.832912692336   -2.691468226011    0.000000000000
 H    4.222702692336   -2.861298226011    0.896530000000
 H    4.222702692336   -2.861298226011   -0.896530000000
 H    5.675162692336   -3.390248226011    0.000000000000
NA    1.766902692336   -0.183138226011    1.652540000000
NA    1.766902692336   -0.183138226011   -1.652540000000
 O   -4.435265071223    0.459703222360    0.000000000000
 C   -5.712808373963    0.354592950626    0.000000000000
 C   -6.396771169806   -0.989153950357    0.000000000000
 H   -5.646650555893   -1.787071607189    0.000000000000
 H   -7.037346744941   -1.094074835653   -0.888124170862
 H   -7.037346744941   -1.094074835653    0.888124170862
 N   -6.477927391651    1.441450460859    0.000000000000
 H   -7.485347624291    1.309691306082    0.000000000000
 C   -5.944999282432    2.806734424913    0.000000000000
 H   -5.334782919213    2.976569860699   -0.896526161867
 H   -5.334782919213    2.976569860699    0.896526161867
 H   -6.787250625763    3.505520620223    0.000000000000
