26

 C    5.398159134889    1.092659205922    0.000000000000
 H    4.648029134889    1.890579205922    0.000000000000
 H    6.038729134889    1.197579205922    0.888120000000
 H    6.038729134889    1.197579205922   -0.888120000000
 C    4.714199134889   -0.251090794078    0.000000000000
 O    3.436659134889   -0.356200794078    0.000000000000
 N    5.479329134889   -1.337940794078    0.000000000000
 H    6.486739134889   -1.206180794078    0.000000000000
 C    4.946399134889   -2.703230794078    0.000000000000
 H    4.336189134889   -2.873060794078    0.896530000000
 H    4.336189134889   -2.873060794078   -0.896530000000
 H    5.788649134889   -3.402010794078    0.000000000000
NA    1.880389134889   -0.194900794078    1.652540000000
NA    1.880389134889   -0.194900794078   -1.652540000000
 O   -4.620180081114    0.478869171538    0.000000000000
 C   -5.897723383854    0.373758899804    0.000000000000
 C   -6.581686179697   -0.969988001179    0.000000000000
 H   -5.831565565784   -1.767905658010    0.000000000000
 H   -7.222261754832   -1.074908886475   -0.888124170862
 H   -7.222261754832   -1.074908886475    0.888124170862
 N   -6.662842401543    1.460616410037    0.000000000000
 H   -7.670262634183    1.328857255260    0.000000000000
 C   -6.129914292323    2.825900374091    0.000000000000
 H   -5.519697929104    2.995735809877   -0.896526161867
 H   -5.519697929104    2.995735809877    0.896526161867
 H   -6.972165635654    3.524686569402    0.000000000000
