26

 C    5.549474391627    1.076975781833    0.000000000000
 H    4.799344391627    1.874895781833    0.000000000000
 H    6.190044391627    1.181895781833    0.888120000000
 H    6.190044391627    1.181895781833   -0.888120000000
 C    4.865514391627   -0.266774218167    0.000000000000
 O    3.587974391627   -0.371884218167    0.000000000000
 N    5.630644391627   -1.353624218167    0.000000000000
 H    6.638054391627   -1.221864218167    0.000000000000
 C    5.097714391627   -2.718914218167    0.000000000000
 H    4.487504391627   -2.888744218167    0.896530000000
 H    4.487504391627   -2.888744218167   -0.896530000000
 H    5.939964391627   -3.417694218167    0.000000000000
NA    2.031704391627   -0.210584218167    1.652540000000
NA    2.031704391627   -0.210584218167   -1.652540000000
 O   -4.866733427636    0.504423770443    0.000000000000
 C   -6.144276730376    0.399313498709    0.000000000000
 C   -6.828239526219   -0.944433402275    0.000000000000
 H   -6.078118912306   -1.742351059106    0.000000000000
 H   -7.468815101354   -1.049354287570   -0.888124170862
 H   -7.468815101354   -1.049354287570    0.888124170862
 N   -6.909395748064    1.486171008942    0.000000000000
 H   -7.916815980704    1.354411854164    0.000000000000
 C   -6.376467638845    2.851454972996    0.000000000000
 H   -5.766251275626    3.021290408782   -0.896526161867
 H   -5.766251275626    3.021290408782    0.896526161867
 H   -7.218718982176    3.550241168306    0.000000000000
