26

 C    5.587303205811    1.073054925811    0.000000000000
 H    4.837173205811    1.870974925811    0.000000000000
 H    6.227873205811    1.177974925811    0.888120000000
 H    6.227873205811    1.177974925811   -0.888120000000
 C    4.903343205811   -0.270695074189    0.000000000000
 O    3.625803205811   -0.375805074189    0.000000000000
 N    5.668473205811   -1.357545074189    0.000000000000
 H    6.675883205811   -1.225785074189    0.000000000000
 C    5.135543205811   -2.722835074189    0.000000000000
 H    4.525333205811   -2.892665074189    0.896530000000
 H    4.525333205811   -2.892665074189   -0.896530000000
 H    5.977793205811   -3.421615074189    0.000000000000
NA    2.069533205811   -0.214505074189    1.652540000000
NA    2.069533205811   -0.214505074189   -1.652540000000
 O   -4.928371764266    0.510812420169    0.000000000000
 C   -6.205915067006    0.405702148435    0.000000000000
 C   -6.889877862849   -0.938044752549    0.000000000000
 H   -6.139757248936   -1.735962409380    0.000000000000
 H   -7.530453437984   -1.042965637844   -0.888124170862
 H   -7.530453437984   -1.042965637844    0.888124170862
 N   -6.971034084695    1.492559658668    0.000000000000
 H   -7.978454317335    1.360800503890    0.000000000000
 C   -6.438105975475    2.857843622722    0.000000000000
 H   -5.827889612257    3.027679058508   -0.896526161867
 H   -5.827889612257    3.027679058508    0.896526161867
 H   -7.280357318807    3.556629818032    0.000000000000
