26

 C    5.662960834180    1.065213213766    0.000000000000
 H    4.912830834180    1.863133213766    0.000000000000
 H    6.303530834180    1.170133213766    0.888120000000
 H    6.303530834180    1.170133213766   -0.888120000000
 C    4.979000834180   -0.278536786234    0.000000000000
 O    3.701460834180   -0.383646786234    0.000000000000
 N    5.744130834180   -1.365386786234    0.000000000000
 H    6.751540834180   -1.233626786234    0.000000000000
 C    5.211200834180   -2.730676786234    0.000000000000
 H    4.600990834180   -2.900506786234    0.896530000000
 H    4.600990834180   -2.900506786234   -0.896530000000
 H    6.053450834180   -3.429456786234    0.000000000000
NA    2.145190834180   -0.222346786234    1.652540000000
NA    2.145190834180   -0.222346786234   -1.652540000000
 O   -5.051648437527    0.523589719621    0.000000000000
 C   -6.329191740267    0.418479447887    0.000000000000
 C   -7.013154536110   -0.925267453096    0.000000000000
 H   -6.263033922197   -1.723185109927    0.000000000000
 H   -7.653730111245   -1.030188338392   -0.888124170862
 H   -7.653730111245   -1.030188338392    0.888124170862
 N   -7.094310757956    1.505336958120    0.000000000000
 H   -8.101730990596    1.373577803343    0.000000000000
 C   -6.561382648736    2.870620922174    0.000000000000
 H   -5.951166285517    3.040456357960   -0.896526161867
 H   -5.951166285517    3.040456357960    0.896526161867
 H   -7.403633992067    3.569407117485    0.000000000000
