26

 C    5.700789648365    1.061292357744    0.000000000000
 H    4.950659648365    1.859212357744    0.000000000000
 H    6.341359648365    1.166212357744    0.888120000000
 H    6.341359648365    1.166212357744   -0.888120000000
 C    5.016829648365   -0.282457642256    0.000000000000
 O    3.739289648365   -0.387567642256    0.000000000000
 N    5.781959648365   -1.369307642256    0.000000000000
 H    6.789369648365   -1.237547642256    0.000000000000
 C    5.249029648365   -2.734597642256    0.000000000000
 H    4.638819648365   -2.904427642256    0.896530000000
 H    4.638819648365   -2.904427642256   -0.896530000000
 H    6.091279648365   -3.433377642256    0.000000000000
NA    2.183019648365   -0.226267642256    1.652540000000
NA    2.183019648365   -0.226267642256   -1.652540000000
 O   -5.113286774157    0.529978369347    0.000000000000
 C   -6.390830076898    0.424868097613    0.000000000000
 C   -7.074792872741   -0.918878803370    0.000000000000
 H   -6.324672258828   -1.716796460201    0.000000000000
 H   -7.715368447875   -1.023799688666   -0.888124170862
 H   -7.715368447875   -1.023799688666    0.888124170862
 N   -7.155949094586    1.511725607846    0.000000000000
 H   -8.163369327226    1.379966453069    0.000000000000
 C   -6.623020985366    2.877009571900    0.000000000000
 H   -6.012804622148    3.046845007686   -0.896526161867
 H   -6.012804622148    3.046845007686    0.896526161867
 H   -7.465272328698    3.575795767211    0.000000000000
