26

 C    5.738618462549    1.057371501722    0.000000000000
 H    4.988488462549    1.855291501722    0.000000000000
 H    6.379188462549    1.162291501722    0.888120000000
 H    6.379188462549    1.162291501722   -0.888120000000
 C    5.054658462549   -0.286378498278    0.000000000000
 O    3.777118462549   -0.391488498278    0.000000000000
 N    5.819788462549   -1.373228498278    0.000000000000
 H    6.827198462549   -1.241468498278    0.000000000000
 C    5.286858462549   -2.738518498278    0.000000000000
 H    4.676648462549   -2.908348498278    0.896530000000
 H    4.676648462549   -2.908348498278   -0.896530000000
 H    6.129108462549   -3.437298498278    0.000000000000
NA    2.220848462549   -0.230188498278    1.652540000000
NA    2.220848462549   -0.230188498278   -1.652540000000
 O   -5.174925110788    0.536367019073    0.000000000000
 C   -6.452468413528    0.431256747339    0.000000000000
 C   -7.136431209371   -0.912490153644    0.000000000000
 H   -6.386310595458   -1.710407810475    0.000000000000
 H   -7.777006784506   -1.017411038940   -0.888124170862
 H   -7.777006784506   -1.017411038940    0.888124170862
 N   -7.217587431217    1.518114257572    0.000000000000
 H   -8.225007663857    1.386355102795    0.000000000000
 C   -6.684659321997    2.883398221626    0.000000000000
 H   -6.074442958778    3.053233657412   -0.896526161867
 H   -6.074442958778    3.053233657412    0.896526161867
 H   -7.526910665328    3.582184416937    0.000000000000
