26

 C    5.814276090918    1.049529789678    0.000000000000
 H    5.064146090918    1.847449789678    0.000000000000
 H    6.454846090918    1.154449789678    0.888120000000
 H    6.454846090918    1.154449789678   -0.888120000000
 C    5.130316090918   -0.294220210322    0.000000000000
 O    3.852776090918   -0.399330210322    0.000000000000
 N    5.895446090918   -1.381070210322    0.000000000000
 H    6.902856090918   -1.249310210322    0.000000000000
 C    5.362516090918   -2.746360210322    0.000000000000
 H    4.752306090918   -2.916190210322    0.896530000000
 H    4.752306090918   -2.916190210322   -0.896530000000
 H    6.204766090918   -3.445140210322    0.000000000000
NA    2.296506090918   -0.238030210322    1.652540000000
NA    2.296506090918   -0.238030210322   -1.652540000000
 O   -5.298201784049    0.549144318525    0.000000000000
 C   -6.575745086789    0.444034046791    0.000000000000
 C   -7.259707882632   -0.899712854192    0.000000000000
 H   -6.509587268719   -1.697630511023    0.000000000000
 H   -7.900283457767   -1.004633739488   -0.888124170862
 H   -7.900283457767   -1.004633739488    0.888124170862
 N   -7.340864104478    1.530891557024    0.000000000000
 H   -8.348284337118    1.399132402247    0.000000000000
 C   -6.807935995258    2.896175521078    0.000000000000
 H   -6.197719632039    3.066010956865   -0.896526161867
 H   -6.197719632039    3.066010956865    0.896526161867
 H   -7.650187338589    3.594961716389    0.000000000000
