26

 C    5.852104905102    1.045608933655    0.000000000000
 H    5.101974905102    1.843528933655    0.000000000000
 H    6.492674905102    1.150528933655    0.888120000000
 H    6.492674905102    1.150528933655   -0.888120000000
 C    5.168144905102   -0.298141066345    0.000000000000
 O    3.890604905102   -0.403251066345    0.000000000000
 N    5.933274905102   -1.384991066345    0.000000000000
 H    6.940684905102   -1.253231066345    0.000000000000
 C    5.400344905102   -2.750281066345    0.000000000000
 H    4.790134905102   -2.920111066345    0.896530000000
 H    4.790134905102   -2.920111066345   -0.896530000000
 H    6.242594905102   -3.449061066345    0.000000000000
NA    2.334334905102   -0.241951066345    1.652540000000
NA    2.334334905102   -0.241951066345   -1.652540000000
 O   -5.359840120679    0.555532968251    0.000000000000
 C   -6.637383423419    0.450422696518    0.000000000000
 C   -7.321346219262   -0.893324204466    0.000000000000
 H   -6.571225605349   -1.691241861297    0.000000000000
 H   -7.961921794397   -0.998245089761   -0.888124170862
 H   -7.961921794397   -0.998245089761    0.888124170862
 N   -7.402502441108    1.537280206750    0.000000000000
 H   -8.409922673748    1.405521051973    0.000000000000
 C   -6.869574331888    2.902564170805    0.000000000000
 H   -6.259357968670    3.072399606591   -0.896526161867
 H   -6.259357968670    3.072399606591    0.896526161867
 H   -7.711825675220    3.601350366115    0.000000000000
