26

 C    5.889933719287    1.041688077633    0.000000000000
 H    5.139803719287    1.839608077633    0.000000000000
 H    6.530503719287    1.146608077633    0.888120000000
 H    6.530503719287    1.146608077633   -0.888120000000
 C    5.205973719287   -0.302061922367    0.000000000000
 O    3.928433719287   -0.407171922367    0.000000000000
 N    5.971103719287   -1.388911922367    0.000000000000
 H    6.978513719287   -1.257151922367    0.000000000000
 C    5.438173719287   -2.754201922367    0.000000000000
 H    4.827963719287   -2.924031922367    0.896530000000
 H    4.827963719287   -2.924031922367   -0.896530000000
 H    6.280423719287   -3.452981922367    0.000000000000
NA    2.372163719287   -0.245871922367    1.652540000000
NA    2.372163719287   -0.245871922367   -1.652540000000
 O   -5.421478457310    0.561921617978    0.000000000000
 C   -6.699021760050    0.456811346244    0.000000000000
 C   -7.382984555893   -0.886935554740    0.000000000000
 H   -6.632863941980   -1.684853211571    0.000000000000
 H   -8.023560131028   -0.991856440035   -0.888124170862
 H   -8.023560131028   -0.991856440035    0.888124170862
 N   -7.464140777738    1.543668856477    0.000000000000
 H   -8.471561010378    1.411909701699    0.000000000000
 C   -6.931212668519    2.908952820531    0.000000000000
 H   -6.320996305300    3.078788256317   -0.896526161867
 H   -6.320996305300    3.078788256317    0.896526161867
 H   -7.773464011850    3.607739015841    0.000000000000
