26

 C    6.079077790209    1.022083797522    0.000000000000
 H    5.328947790209    1.820003797522    0.000000000000
 H    6.719647790209    1.127003797522    0.888120000000
 H    6.719647790209    1.127003797522   -0.888120000000
 C    5.395117790209   -0.321666202478    0.000000000000
 O    4.117577790209   -0.426776202478    0.000000000000
 N    6.160247790209   -1.408516202478    0.000000000000
 H    7.167657790209   -1.276756202478    0.000000000000
 C    5.627317790209   -2.773806202478    0.000000000000
 H    5.017107790209   -2.943636202478    0.896530000000
 H    5.017107790209   -2.943636202478   -0.896530000000
 H    6.469567790209   -3.472586202478    0.000000000000
NA    2.561307790209   -0.265476202478    1.652540000000
NA    2.561307790209   -0.265476202478   -1.652540000000
 O   -5.729670140462    0.593864866608    0.000000000000
 C   -7.007213443202    0.488754594874    0.000000000000
 C   -7.691176239045   -0.854992306109    0.000000000000
 H   -6.941055625132   -1.652909962940    0.000000000000
 H   -8.331751814180   -0.959913191405   -0.888124170862
 H   -8.331751814180   -0.959913191405    0.888124170862
 N   -7.772332460891    1.575612105107    0.000000000000
 H   -8.779752693531    1.443852950330    0.000000000000
 C   -7.239404351671    2.940896069161    0.000000000000
 H   -6.629187988452    3.110731504947   -0.896526161867
 H   -6.629187988452    3.110731504947    0.896526161867
 H   -8.081655695002    3.639682264472    0.000000000000
