14

 P   -1.270330869693    0.749213195593   -0.469436563670
 O   -1.857330869693    1.799213195593    0.485563436330
 O   -1.536330869693    0.797213195593   -1.981436563670
 O    0.392669130307    0.575213195593   -0.182436563670
 O   -1.585330869693   -0.808786804407    0.122563436330
 C    1.129669130307    1.740213195593   -0.559436563670
 H    0.798669130307    2.623213195593    0.016563436330
 H    1.014669130307    1.951213195593   -1.637436563670
 H    2.189669130307    1.538213195593   -0.339436563670
 C   -2.976330869693   -1.131786804407    0.072563436330
 H   -3.354330869693   -1.104786804407   -0.965436563670
 H   -3.569330869693   -0.432786804407    0.688563436330
 H   -3.086330869693   -2.151786804407    0.472563436330
CS    1.060292917576   -0.532280179486    0.353974568607
