14

 P   -1.368629033929    0.912275938039   -0.548415519459
 O   -1.955629033929    1.962275938039    0.406584480541
 O   -1.634629033929    0.960275938039   -2.060415519459
 O    0.294370966071    0.738275938039   -0.261415519459
 O   -1.683629033929   -0.645724061961    0.043584480541
 C    1.031370966071    1.903275938039   -0.638415519459
 H    0.700370966071    2.786275938039   -0.062415519459
 H    0.916370966071    2.114275938039   -1.716415519459
 H    2.091370966071    1.701275938039   -0.418415519459
 C   -3.074629033929   -0.968724061961   -0.006415519459
 H   -3.452629033929   -0.941724061961   -1.044415519459
 H   -3.667629033929   -0.269724061961    0.609584480541
 H   -3.184629033929   -1.988724061961    0.393584480541
CS    1.152744406845   -0.685644115634    0.428255936325
