14

 P   -1.393203574988    0.953041623651   -0.568160258407
 O   -1.980203574988    2.003041623651    0.386839741593
 O   -1.659203574988    1.001041623651   -2.080160258407
 O    0.269796425012    0.779041623651   -0.281160258407
 O   -1.708203574988   -0.604958376349    0.023839741593
 C    1.006796425012    1.944041623651   -0.658160258407
 H    0.675796425012    2.827041623651   -0.082160258407
 H    0.891796425012    2.155041623651   -1.736160258407
 H    2.066796425012    1.742041623651   -0.438160258407
 C   -3.099203574988   -0.927958376349   -0.026160258407
 H   -3.477203574988   -0.900958376349   -1.064160258407
 H   -3.692203574988   -0.228958376349    0.589839741593
 H   -3.209203574988   -1.947958376349    0.373839741593
CS    1.175857279162   -0.723985099671    0.446826278254
