14

 P   -1.540650821343    1.197635737320   -0.686628692091
 O   -2.127650821343    2.247635737320    0.268371307909
 O   -1.806650821343    1.245635737320   -2.198628692091
 O    0.122349178657    1.023635737320   -0.399628692091
 O   -1.855650821343   -0.360364262680   -0.094628692091
 C    0.859349178657    2.188635737320   -0.776628692091
 H    0.528349178657    3.071635737320   -0.200628692091
 H    0.744349178657    2.399635737320   -1.854628692091
 H    1.919349178657    1.986635737320   -0.556628692091
 C   -3.246650821343   -0.683364262680   -0.144628692091
 H   -3.624650821343   -0.656364262680   -1.182628692091
 H   -3.839650821343    0.015635737320    0.471371307909
 H   -3.356650821343   -1.703364262680    0.255371307909
CS    1.314534513065   -0.954031003892    0.558248329831
