14

 P   -1.688098067697    1.442229850989   -0.805097125775
 O   -2.275098067697    2.492229850989    0.149902874225
 O   -1.954098067697    1.490229850989   -2.317097125775
 O   -0.025098067697    1.268229850989   -0.518097125775
 O   -2.003098067697   -0.115770149011   -0.213097125775
 C    0.711901932303    2.433229850989   -0.895097125775
 H    0.380901932303    3.316229850989   -0.319097125775
 H    0.596901932303    2.644229850989   -1.973097125775
 H    1.771901932303    2.231229850989   -0.675097125775
 C   -3.394098067697   -0.438770149011   -0.263097125775
 H   -3.772098067697   -0.411770149011   -1.301097125775
 H   -3.987098067697    0.260229850989    0.352902874225
 H   -3.504098067697   -1.458770149011    0.136902874225
CS    1.453211746968   -1.184076908114    0.669670381408
