14

 P   -1.712672608756    1.482995536600   -0.824841864723
 O   -2.299672608756    2.532995536600    0.130158135277
 O   -1.978672608756    1.530995536600   -2.336841864723
 O   -0.049672608756    1.308995536600   -0.537841864723
 O   -2.027672608756   -0.075004463400   -0.232841864723
 C    0.687327391244    2.473995536600   -0.914841864723
 H    0.356327391244    3.356995536600   -0.338841864723
 H    0.572327391244    2.684995536600   -1.992841864723
 H    1.747327391244    2.271995536600   -0.694841864723
 C   -3.418672608756   -0.398004463400   -0.282841864723
 H   -3.796672608756   -0.371004463400   -1.320841864723
 H   -4.011672608756    0.300995536600    0.333158135277
 H   -3.528672608756   -1.418004463400    0.117158135277
CS    1.476324619286   -1.222417892151    0.688240723337
