14

 P   -1.761821690875    1.564526907824   -0.864331342617
 O   -2.348821690875    2.614526907824    0.090668657383
 O   -2.027821690875    1.612526907824   -2.376331342617
 O   -0.098821690875    1.390526907824   -0.577331342617
 O   -2.076821690875    0.006526907824   -0.272331342617
 C    0.638178309125    2.555526907824   -0.954331342617
 H    0.307178309125    3.438526907824   -0.378331342617
 H    0.523178309125    2.766526907824   -2.032331342617
 H    1.698178309125    2.353526907824   -0.734331342617
 C   -3.467821690875   -0.316473092176   -0.322331342617
 H   -3.845821690875   -0.289473092176   -1.360331342617
 H   -4.060821690875    0.382526907824    0.293668657383
 H   -3.577821690875   -1.336473092176    0.077668657383
CS    1.522550363920   -1.299099860225    0.725381407196
