14

 P   -1.810970772993    1.646058279047   -0.903820820512
 O   -2.397970772993    2.696058279047    0.051179179488
 O   -2.076970772993    1.694058279047   -2.415820820512
 O   -0.147970772993    1.472058279047   -0.616820820512
 O   -2.125970772993    0.088058279047   -0.311820820512
 C    0.589029227007    2.637058279047   -0.993820820512
 H    0.258029227007    3.520058279047   -0.417820820512
 H    0.474029227007    2.848058279047   -2.071820820512
 H    1.649029227007    2.435058279047   -0.773820820512
 C   -3.516970772993   -0.234941720953   -0.361820820512
 H   -3.894970772993   -0.207941720953   -1.399820820512
 H   -4.109970772993    0.464058279047    0.254179179488
 H   -3.626970772993   -1.254941720953    0.038179179488
CS    1.568776108555   -1.375781828299    0.762522091055
