14

 P   -1.835545314052    1.686823964658   -0.923565559460
 O   -2.422545314052    2.736823964658    0.031434440540
 O   -2.101545314052    1.734823964658   -2.435565559460
 O   -0.172545314052    1.512823964658   -0.636565559460
 O   -2.150545314052    0.128823964658   -0.331565559460
 C    0.564454685948    2.677823964658   -1.013565559460
 H    0.233454685948    3.560823964658   -0.437565559460
 H    0.449454685948    2.888823964658   -2.091565559460
 H    1.624454685948    2.475823964658   -0.793565559460
 C   -3.541545314052   -0.194176035342   -0.381565559460
 H   -3.919545314052   -0.167176035342   -1.419565559460
 H   -4.134545314052    0.504823964658    0.234434440540
 H   -3.651545314052   -1.214176035342    0.018434440540
CS    1.591888980872   -1.414122812336    0.781092432985
