14

 P   -1.860119855111    1.727589650270   -0.943310298407
 O   -2.447119855111    2.777589650270    0.011689701593
 O   -2.126119855111    1.775589650270   -2.455310298407
 O   -0.197119855111    1.553589650270   -0.656310298407
 O   -2.175119855111    0.169589650270   -0.351310298407
 C    0.539880144889    2.718589650270   -1.033310298407
 H    0.208880144889    3.601589650270   -0.457310298407
 H    0.424880144889    2.929589650270   -2.111310298407
 H    1.599880144889    2.516589650270   -0.813310298407
 C   -3.566119855111   -0.153410349730   -0.401310298407
 H   -3.944119855111   -0.126410349730   -1.439310298407
 H   -4.159119855111    0.545589650270    0.214689701593
 H   -3.676119855111   -1.173410349730   -0.001310298407
CS    1.615001853189   -1.452463796373    0.799662774914
