14

 P   -1.884694396170    1.768355335881   -0.963055037354
 O   -2.471694396170    2.818355335881   -0.008055037354
 O   -2.150694396170    1.816355335881   -2.475055037354
 O   -0.221694396170    1.594355335881   -0.676055037354
 O   -2.199694396170    0.210355335881   -0.371055037354
 C    0.515305603830    2.759355335881   -1.053055037354
 H    0.184305603830    3.642355335881   -0.477055037354
 H    0.400305603830    2.970355335881   -2.131055037354
 H    1.575305603830    2.557355335881   -0.833055037354
 C   -3.590694396170   -0.112644664119   -0.421055037354
 H   -3.968694396170   -0.085644664119   -1.459055037354
 H   -4.183694396170    0.586355335881    0.194944962646
 H   -3.700694396170   -1.132644664119   -0.021055037354
CS    1.638114725506   -1.490804780410    0.818233116844
