14

 P   -2.081290724643    2.094480820773   -1.121012948934
 O   -2.668290724643    3.144480820773   -0.166012948934
 O   -2.347290724643    2.142480820773   -2.633012948934
 O   -0.418290724643    1.920480820773   -0.834012948934
 O   -2.396290724643    0.536480820773   -0.529012948934
 C    0.318709275357    3.085480820773   -1.211012948934
 H   -0.012290724643    3.968480820773   -0.635012948934
 H    0.203709275357    3.296480820773   -2.289012948934
 H    1.378709275357    2.883480820773   -0.991012948934
 C   -3.787290724643    0.213480820773   -0.579012948934
 H   -4.165290724643    0.240480820773   -1.617012948934
 H   -4.380290724643    0.912480820773    0.036987051066
 H   -3.897290724643   -0.806519179227   -0.179012948934
CS    1.823017704044   -1.797532652705    0.966795852280
