14

 P   -2.253312512057    2.379840620054   -1.259226121565
 O   -2.840312512057    3.429840620054   -0.304226121565
 O   -2.519312512057    2.427840620054   -2.771226121565
 O   -0.590312512057    2.205840620054   -0.972226121565
 O   -2.568312512057    0.821840620054   -0.667226121565
 C    0.146687487943    3.370840620054   -1.349226121565
 H   -0.184312512057    4.253840620054   -0.773226121565
 H    0.031687487943    3.581840620054   -2.427226121565
 H    1.206687487943    3.168840620054   -1.129226121565
 C   -3.959312512057    0.498840620054   -0.717226121565
 H   -4.337312512057    0.525840620054   -1.755226121565
 H   -4.552312512057    1.197840620054   -0.101226121565
 H   -4.069312512057   -0.521159379946   -0.317226121565
CS    1.984807810264   -2.065919540964    1.096788245786
