14

 P   -2.474483381589    2.746731790558   -1.436928772092
 O   -3.061483381589    3.796731790558   -0.481928772092
 O   -2.740483381589    2.794731790558   -2.948928772092
 O   -0.811483381589    2.572731790558   -1.149928772092
 O   -2.789483381589    1.188731790558   -0.844928772092
 C   -0.074483381589    3.737731790558   -1.526928772092
 H   -0.405483381589    4.620731790558   -0.950928772092
 H   -0.189483381589    3.948731790558   -2.604928772092
 H    0.985516618411    3.535731790558   -1.306928772092
 C   -4.180483381589    0.865731790558   -0.894928772092
 H   -4.558483381589    0.892731790558   -1.932928772092
 H   -4.773483381589    1.564731790558   -0.278928772092
 H   -4.290483381589   -0.154268209442   -0.494928772092
CS    2.192823661119   -2.410988397297    1.263921323151
