14

 P   -2.572781545825    2.909794533004   -1.515907727881
 O   -3.159781545825    3.959794533004   -0.560907727881
 O   -2.838781545825    2.957794533004   -3.027907727881
 O   -0.909781545825    2.735794533004   -1.228907727881
 O   -2.887781545825    1.351794533004   -0.923907727881
 C   -0.172781545825    3.900794533004   -1.605907727881
 H   -0.503781545825    4.783794533004   -1.029907727881
 H   -0.287781545825    4.111794533004   -2.683907727881
 H    0.887218454175    3.698794533004   -1.385907727881
 C   -4.278781545825    1.028794533004   -0.973907727881
 H   -4.656781545825    1.055794533004   -2.011907727881
 H   -4.871781545825    1.727794533004   -0.357907727881
 H   -4.388781545825    0.008794533004   -0.573907727881
CS    2.285275150388   -2.564352333444    1.338202690869
