14

 P   -2.793952415357    3.276685703508   -1.693610378408
 O   -3.380952415357    4.326685703508   -0.738610378408
 O   -3.059952415357    3.324685703508   -3.205610378408
 O   -1.130952415357    3.102685703508   -1.406610378408
 O   -3.108952415357    1.718685703508   -1.101610378408
 C   -0.393952415357    4.267685703508   -1.783610378408
 H   -0.724952415357    5.150685703508   -1.207610378408
 H   -0.508952415357    4.478685703508   -2.861610378408
 H    0.666047584643    4.065685703508   -1.563610378408
 C   -4.499952415357    1.395685703508   -1.151610378408
 H   -4.877952415357    1.422685703508   -2.189610378408
 H   -5.092952415357    2.094685703508   -0.535610378408
 H   -4.609952415357    0.375685703508   -0.751610378408
CS    2.493291001243   -2.909421189777    1.505335768235
