14

 P   -2.818526956416    3.317451389119   -1.713355117355
 O   -3.405526956416    4.367451389119   -0.758355117355
 O   -3.084526956416    3.365451389119   -3.225355117355
 O   -1.155526956416    3.143451389119   -1.426355117355
 O   -3.133526956416    1.759451389119   -1.121355117355
 C   -0.418526956416    4.308451389119   -1.803355117355
 H   -0.749526956416    5.191451389119   -1.227355117355
 H   -0.533526956416    4.519451389119   -2.881355117355
 H    0.641473043584    4.106451389119   -1.583355117355
 C   -4.524526956416    1.436451389119   -1.171355117355
 H   -4.902526956416    1.463451389119   -2.209355117355
 H   -5.117526956416    2.135451389119   -0.555355117355
 H   -4.634526956416    0.416451389119   -0.771355117355
CS    2.516403873560   -2.947762173814    1.523906110164
