14

 P   -2.892250579594    3.439748445954   -1.772589334198
 O   -3.479250579594    4.489748445954   -0.817589334198
 O   -3.158250579594    3.487748445954   -3.284589334198
 O   -1.229250579594    3.265748445954   -1.485589334198
 O   -3.207250579594    1.881748445954   -1.180589334198
 C   -0.492250579594    4.430748445954   -1.862589334198
 H   -0.823250579594    5.313748445954   -1.286589334198
 H   -0.607250579594    4.641748445954   -2.940589334198
 H    0.567749420406    4.228748445954   -1.642589334198
 C   -4.598250579594    1.558748445954   -1.230589334198
 H   -4.976250579594    1.585748445954   -2.268589334198
 H   -5.191250579594    2.257748445954   -0.614589334198
 H   -4.708250579594    0.538748445954   -0.830589334198
CS    2.585742490512   -3.062785125925    1.579617135953
