14

 P   -2.916825120653    3.480514131565   -1.792334073145
 O   -3.503825120653    4.530514131565   -0.837334073145
 O   -3.182825120653    3.528514131565   -3.304334073145
 O   -1.253825120653    3.306514131565   -1.505334073145
 O   -3.231825120653    1.922514131565   -1.200334073145
 C   -0.516825120653    4.471514131565   -1.882334073145
 H   -0.847825120653    5.354514131565   -1.306334073145
 H   -0.631825120653    4.682514131565   -2.960334073145
 H    0.543174879347    4.269514131565   -1.662334073145
 C   -4.622825120653    1.599514131565   -1.250334073145
 H   -5.000825120653    1.626514131565   -2.288334073145
 H   -5.215825120653    2.298514131565   -0.634334073145
 H   -4.732825120653    0.579514131565   -0.850334073145
CS    2.608855362829   -3.101126109962    1.598187477882
