14

 P   -2.941399661712    3.521279817177   -1.812078812092
 O   -3.528399661712    4.571279817177   -0.857078812092
 O   -3.207399661712    3.569279817177   -3.324078812092
 O   -1.278399661712    3.347279817177   -1.525078812092
 O   -3.256399661712    1.963279817177   -1.220078812092
 C   -0.541399661712    4.512279817177   -1.902078812092
 H   -0.872399661712    5.395279817177   -1.326078812092
 H   -0.656399661712    4.723279817177   -2.980078812092
 H    0.518600338288    4.310279817177   -1.682078812092
 C   -4.647399661712    1.640279817177   -1.270078812092
 H   -5.025399661712    1.667279817177   -2.308078812092
 H   -5.240399661712    2.339279817177   -0.654078812092
 H   -4.757399661712    0.620279817177   -0.870078812092
CS    2.631968235146   -3.139467093999    1.616757819812
