14

 P   -2.990548743830    3.602811188400   -1.851568289987
 O   -3.577548743830    4.652811188400   -0.896568289987
 O   -3.256548743830    3.650811188400   -3.363568289987
 O   -1.327548743830    3.428811188400   -1.564568289987
 O   -3.305548743830    2.044811188400   -1.259568289987
 C   -0.590548743830    4.593811188400   -1.941568289987
 H   -0.921548743830    5.476811188400   -1.365568289987
 H   -0.705548743830    4.804811188400   -3.019568289987
 H    0.469451256170    4.391811188400   -1.721568289987
 C   -4.696548743830    1.721811188400   -1.309568289987
 H   -5.074548743830    1.748811188400   -2.347568289987
 H   -5.289548743830    2.420811188400   -0.693568289987
 H   -4.806548743830    0.701811188400   -0.909568289987
CS    2.678193979781   -3.216149062073    1.653898503670
