14

 P   -3.015123284889    3.643576874012   -1.871313028935
 O   -3.602123284889    4.693576874012   -0.916313028935
 O   -3.281123284889    3.691576874012   -3.383313028935
 O   -1.352123284889    3.469576874012   -1.584313028935
 O   -3.330123284889    2.085576874012   -1.279313028935
 C   -0.615123284889    4.634576874012   -1.961313028935
 H   -0.946123284889    5.517576874012   -1.385313028935
 H   -0.730123284889    4.845576874012   -3.039313028935
 H    0.444876715111    4.432576874012   -1.741313028935
 C   -4.721123284889    1.762576874012   -1.329313028935
 H   -5.099123284889    1.789576874012   -2.367313028935
 H   -5.314123284889    2.461576874012   -0.713313028935
 H   -4.831123284889    0.742576874012   -0.929313028935
CS    2.701306852098   -3.254490046110    1.672468845600
