14

 P   -3.039697825948    3.684342559623   -1.891057767882
 O   -3.626697825948    4.734342559623   -0.936057767882
 O   -3.305697825948    3.732342559623   -3.403057767882
 O   -1.376697825948    3.510342559623   -1.604057767882
 O   -3.354697825948    2.126342559623   -1.299057767882
 C   -0.639697825948    4.675342559623   -1.981057767882
 H   -0.970697825948    5.558342559623   -1.405057767882
 H   -0.754697825948    4.886342559623   -3.059057767882
 H    0.420302174052    4.473342559623   -1.761057767882
 C   -4.745697825948    1.803342559623   -1.349057767882
 H   -5.123697825948    1.830342559623   -2.387057767882
 H   -5.338697825948    2.502342559623   -0.733057767882
 H   -4.855697825948    0.783342559623   -0.949057767882
CS    2.724419724415   -3.292831030147    1.691039187529
