14

 P   -3.064272367007    3.725108245235   -1.910802506829
 O   -3.651272367007    4.775108245235   -0.955802506829
 O   -3.330272367007    3.773108245235   -3.422802506829
 O   -1.401272367007    3.551108245235   -1.623802506829
 O   -3.379272367007    2.167108245235   -1.318802506829
 C   -0.664272367007    4.716108245235   -2.000802506829
 H   -0.995272367007    5.599108245235   -1.424802506829
 H   -0.779272367007    4.927108245235   -3.078802506829
 H    0.395727632993    4.514108245235   -1.780802506829
 C   -4.770272367007    1.844108245235   -1.368802506829
 H   -5.148272367007    1.871108245235   -2.406802506829
 H   -5.363272367007    2.543108245235   -0.752802506829
 H   -4.880272367007    0.824108245235   -0.968802506829
CS    2.747532596732   -3.331172014184    1.709609529459
