14

 P   -3.088846908067    3.765873930846   -1.930547245777
 O   -3.675846908067    4.815873930846   -0.975547245777
 O   -3.354846908067    3.813873930846   -3.442547245777
 O   -1.425846908067    3.591873930846   -1.643547245777
 O   -3.403846908067    2.207873930846   -1.338547245777
 C   -0.688846908067    4.756873930846   -2.020547245777
 H   -1.019846908067    5.639873930846   -1.444547245777
 H   -0.803846908067    4.967873930846   -3.098547245777
 H    0.371153091933    4.554873930846   -1.800547245777
 C   -4.794846908067    1.884873930846   -1.388547245777
 H   -5.172846908067    1.911873930846   -2.426547245777
 H   -5.387846908067    2.583873930846   -0.772547245777
 H   -4.904846908067    0.864873930846   -0.988547245777
CS    2.770645469049   -3.369512998221    1.728179871388
