14

 P   -3.113421449126    3.806639616458   -1.950291984724
 O   -3.700421449126    4.856639616458   -0.995291984724
 O   -3.379421449126    3.854639616458   -3.462291984724
 O   -1.450421449126    3.632639616458   -1.663291984724
 O   -3.428421449126    2.248639616458   -1.358291984724
 C   -0.713421449126    4.797639616458   -2.040291984724
 H   -1.044421449126    5.680639616458   -1.464291984724
 H   -0.828421449126    5.008639616458   -3.118291984724
 H    0.346578550874    4.595639616458   -1.820291984724
 C   -4.819421449126    1.925639616458   -1.408291984724
 H   -5.197421449126    1.952639616458   -2.446291984724
 H   -5.412421449126    2.624639616458   -0.792291984724
 H   -4.929421449126    0.905639616458   -1.008291984724
CS    2.793758341367   -3.407853982258    1.746750213318
