14

 P   -3.137995990185    3.847405302069   -1.970036723671
 O   -3.724995990185    4.897405302069   -1.015036723671
 O   -3.403995990185    3.895405302069   -3.482036723671
 O   -1.474995990185    3.673405302069   -1.683036723671
 O   -3.452995990185    2.289405302069   -1.378036723671
 C   -0.737995990185    4.838405302069   -2.060036723671
 H   -1.068995990185    5.721405302069   -1.484036723671
 H   -0.852995990185    5.049405302069   -3.138036723671
 H    0.322004009815    4.636405302069   -1.840036723671
 C   -4.843995990185    1.966405302069   -1.428036723671
 H   -5.221995990185    1.993405302069   -2.466036723671
 H   -5.436995990185    2.665405302069   -0.812036723671
 H   -4.953995990185    0.946405302069   -1.028036723671
CS    2.816871213684   -3.446194966294    1.765320555247
