14

 P   -3.211719613362    3.969702358904   -2.029270940514
 O   -3.798719613362    5.019702358904   -1.074270940514
 O   -3.477719613362    4.017702358904   -3.541270940514
 O   -1.548719613362    3.795702358904   -1.742270940514
 O   -3.526719613362    2.411702358904   -1.437270940514
 C   -0.811719613362    4.960702358904   -2.119270940514
 H   -1.142719613362    5.843702358904   -1.543270940514
 H   -0.926719613362    5.171702358904   -3.197270940514
 H    0.248280386638    4.758702358904   -1.899270940514
 C   -4.917719613362    2.088702358904   -1.487270940514
 H   -5.295719613362    2.115702358904   -2.525270940514
 H   -5.510719613362    2.787702358904   -0.871270940514
 H   -5.027719613362    1.068702358904   -1.087270940514
CS    2.886209830635   -3.561217918405    1.821031581036
