14

 P   -3.285443236539    4.091999415738   -2.088505157356
 O   -3.872443236539    5.141999415738   -1.133505157356
 O   -3.551443236539    4.139999415738   -3.600505157356
 O   -1.622443236539    3.917999415738   -1.801505157356
 O   -3.600443236539    2.533999415738   -1.496505157356
 C   -0.885443236539    5.082999415738   -2.178505157356
 H   -1.216443236539    5.965999415738   -1.602505157356
 H   -1.000443236539    5.293999415738   -3.256505157356
 H    0.174556763461    4.880999415738   -1.958505157356
 C   -4.991443236539    2.210999415738   -1.546505157356
 H   -5.369443236539    2.237999415738   -2.584505157356
 H   -5.584443236539    2.909999415738   -0.930505157356
 H   -5.101443236539    1.190999415738   -1.146505157356
CS    2.955548447587   -3.676240870516    1.876742606824
