14

 P   -3.310017777599    4.132765101350   -2.108249896303
 O   -3.897017777599    5.182765101350   -1.153249896303
 O   -3.576017777599    4.180765101350   -3.620249896303
 O   -1.647017777599    3.958765101350   -1.821249896303
 O   -3.625017777599    2.574765101350   -1.516249896303
 C   -0.910017777599    5.123765101350   -2.198249896303
 H   -1.241017777599    6.006765101350   -1.622249896303
 H   -1.025017777599    5.334765101350   -3.276249896303
 H    0.149982222401    4.921765101350   -1.978249896303
 C   -5.016017777599    2.251765101350   -1.566249896303
 H   -5.394017777599    2.278765101350   -2.604249896303
 H   -5.609017777599    2.950765101350   -0.950249896303
 H   -5.126017777599    1.231765101350   -1.166249896303
CS    2.978661319904   -3.714581854553    1.895312948754
