14

 P   -3.334592318658    4.173530786961   -2.127994635251
 O   -3.921592318658    5.223530786961   -1.172994635251
 O   -3.600592318658    4.221530786961   -3.639994635251
 O   -1.671592318658    3.999530786961   -1.840994635251
 O   -3.649592318658    2.615530786961   -1.535994635251
 C   -0.934592318658    5.164530786961   -2.217994635251
 H   -1.265592318658    6.047530786961   -1.641994635251
 H   -1.049592318658    5.375530786961   -3.295994635251
 H    0.125407681342    4.962530786961   -1.997994635251
 C   -5.040592318658    2.292530786961   -1.585994635251
 H   -5.418592318658    2.319530786961   -2.623994635251
 H   -5.633592318658    2.991530786961   -0.969994635251
 H   -5.150592318658    1.272530786961   -1.185994635251
CS    3.001774192222   -3.752922838590    1.913883290683
