14

 N    1.305254565906    1.494389658382    0.537522064562
 C    0.219807623003    2.317148628210    0.540663935783
 H    0.411328462885    3.392205600709    0.538159337241
 C    1.223390845224    0.075119196656    0.538539733446
 O    2.267134092542   -0.578122693405    0.536058892134
 N   -0.050447243457   -0.467020434937    0.549152967576
 C   -1.108133356270    0.334331595938    0.546659922748
 N   -2.340126472726   -0.269467433142    0.501254099539
 H   -2.349060941047   -1.269161319653    0.670824708104
 H   -3.158704216929    0.256960886258    0.776154224336
 C   -1.039551357836    1.775708435133    0.543176489082
 H   -1.928075073521    2.407026026377    0.533694535055
 H    2.249194688833    1.869037870824    0.534216168334
CS   -0.058675492285   -0.467262840700   -0.450813150430
