14

 N    1.306151130691    1.494416071350    0.646480170398
 C    0.220704187788    2.317175041178    0.649622041619
 H    0.412225027670    3.392232013677    0.647117443077
 C    1.224287410009    0.075145609624    0.647497839282
 O    2.268030657327   -0.578096280437    0.645016997970
 N   -0.049550678672   -0.466994021969    0.658111073412
 C   -1.107236791485    0.334358008906    0.655618028584
 N   -2.339229907941   -0.269441020174    0.610212205375
 H   -2.348164376262   -1.269134906685    0.779782813940
 H   -3.157807652144    0.256987299226    0.885112330172
 C   -1.038654793051    1.775734848101    0.652134594918
 H   -1.927178508736    2.407052439345    0.642652640891
 H    2.250091253618    1.869064283792    0.643174274170
CS   -0.059424577267   -0.467284908885   -0.541848268195
