14

 N    1.307047695475    1.494442484318    0.755438276234
 C    0.221600752572    2.317201454146    0.758580147455
 H    0.413121592454    3.392258426645    0.756075548913
 C    1.225183974793    0.075172022592    0.756455945118
 O    2.268927222111   -0.578069867469    0.753975103806
 N   -0.048654113888   -0.466967609001    0.767069179248
 C   -1.106340226701    0.334384421874    0.764576134420
 N   -2.338333343157   -0.269414607206    0.719170311211
 H   -2.347267811478   -1.269108493717    0.888740919776
 H   -3.156911087360    0.257013712194    0.994070436008
 C   -1.037758228267    1.775761261069    0.761092700754
 H   -1.926281943952    2.407078852313    0.751610746727
 H    2.250987818402    1.869090696760    0.752132380006
CS   -0.060173662249   -0.467306977070   -0.632883385961
