14

 N    1.310185672219    1.494534929705    1.136791646660
 C    0.224738729316    2.317293899533    1.139933517881
 H    0.416259569198    3.392350872032    1.137428919339
 C    1.228321951537    0.075264467979    1.137809315544
 O    2.272065198855   -0.577977422082    1.135328474232
 N   -0.045516137144   -0.466875163614    1.148422549674
 C   -1.103202249957    0.334476867261    1.145929504846
 N   -2.335195366413   -0.269322161819    1.100523681637
 H   -2.344129834734   -1.269016048330    1.270094290202
 H   -3.153773110616    0.257106157581    1.375423806434
 C   -1.034620251523    1.775853706456    1.142446071180
 H   -1.923143967208    2.407171297700    1.132964117153
 H    2.254125795146    1.869183142147    1.133485750432
CS   -0.062795459684   -0.467384215717   -0.951506298139
