14

 N    1.311082237003    1.494561342673    1.245749752496
 C    0.225635294100    2.317320312501    1.248891623717
 H    0.417156133982    3.392377285000    1.246387025175
 C    1.229218516321    0.075290880947    1.246767421380
 O    2.272961763639   -0.577951009114    1.244286580068
 N   -0.044619572360   -0.466848750646    1.257380655510
 C   -1.102305685173    0.334503280229    1.254887610682
 N   -2.334298801629   -0.269295748851    1.209481787473
 H   -2.343233269950   -1.268989635362    1.379052396038
 H   -3.152876545832    0.257132570549    1.484381912270
 C   -1.033723686739    1.775880119424    1.251404177016
 H   -1.922247402424    2.407197710668    1.241922222989
 H    2.255022359930    1.869209555115    1.242443856268
CS   -0.063544544666   -0.467406283902   -1.042541415904
