14

 N    1.312875366572    1.494614168608    1.463665964168
 C    0.227428423669    2.317373138436    1.466807835389
 H    0.418949263551    3.392430110935    1.464303236847
 C    1.231011645890    0.075343706882    1.464683633052
 O    2.274754893208   -0.577898183179    1.462202791740
 N   -0.042826442791   -0.466795924711    1.475296867182
 C   -1.100512555604    0.334556106164    1.472803822354
 N   -2.332505672060   -0.269242922916    1.427397999145
 H   -2.341440140381   -1.268936809427    1.596968607710
 H   -3.151083416263    0.257185396484    1.702298123942
 C   -1.031930557170    1.775932945359    1.469320388688
 H   -1.920454272855    2.407250536603    1.459838434661
 H    2.256815489499    1.869262381050    1.460360067940
CS   -0.065042714629   -0.467450420272   -1.224611651435
