14

 N    1.315116778532    1.494680201027    1.736061228758
 C    0.229669835629    2.317439170855    1.739203099979
 H    0.421190675511    3.392496143354    1.736698501437
 C    1.233253057850    0.075409739301    1.737078897642
 O    2.276996305168   -0.577832150760    1.734598056330
 N   -0.040585030831   -0.466729892292    1.747692131772
 C   -1.098271143644    0.334622138583    1.745199086944
 N   -2.330264260100   -0.269176890497    1.699793263735
 H   -2.339198728421   -1.268870777008    1.869363872300
 H   -3.148842004303    0.257251428903    1.974693388532
 C   -1.029689145210    1.775998977778    1.741715653278
 H   -1.918212860895    2.407316569022    1.732233699251
 H    2.259056901459    1.869328413469    1.732755332530
CS   -0.066915427083   -0.467505590734   -1.452199445848
