14

 N    1.316909908100    1.494733026963    1.953977440430
 C    0.231462965197    2.317491996791    1.957119311651
 H    0.422983805079    3.392548969290    1.954614713109
 C    1.235046187418    0.075462565237    1.954995109314
 O    2.278789434736   -0.577779324824    1.952514268002
 N   -0.038791901263   -0.466677066356    1.965608343444
 C   -1.096478014076    0.334674964519    1.963115298616
 N   -2.328471130532   -0.269124064561    1.917709475407
 H   -2.337405598853   -1.268817951072    2.087280083972
 H   -3.147048874735    0.257304254839    2.192609600204
 C   -1.027896015642    1.776051803714    1.959631864950
 H   -1.916419731327    2.407369394958    1.950149910923
 H    2.260850031027    1.869381239405    1.950671544202
CS   -0.068413597047   -0.467549727104   -1.634269681379
