14

 N    1.318254755276    1.494772646414    2.117414599184
 C    0.232807812373    2.317531616242    2.120556470405
 H    0.424328652255    3.392588588741    2.118051871863
 C    1.236391034594    0.075502184688    2.118432268068
 O    2.280134281912   -0.577739705373    2.115951426756
 N   -0.037447054087   -0.466637446905    2.129045502198
 C   -1.095133166900    0.334714583970    2.126552457370
 N   -2.327126283356   -0.269084445110    2.081146634161
 H   -2.336060751677   -1.268778331621    2.250717242726
 H   -3.145704027559    0.257343874290    2.356046758958
 C   -1.026551168466    1.776091423165    2.123069023704
 H   -1.915074884151    2.407409014409    2.113587069677
 H    2.262194878203    1.869420858856    2.114108702956
CS   -0.069537224519   -0.467582829381   -1.770822358027
