14

 N    1.318703037668    1.494785852898    2.171893652102
 C    0.233256094765    2.317544822726    2.175035523323
 H    0.424776934647    3.392601795225    2.172530924781
 C    1.236839316986    0.075515391172    2.172911320986
 O    2.280582564304   -0.577726498889    2.170430479674
 N   -0.036998771695   -0.466624240421    2.183524555116
 C   -1.094684884508    0.334727790454    2.181031510288
 N   -2.326678000964   -0.269071238626    2.135625687079
 H   -2.335612469285   -1.268765125137    2.305196295644
 H   -3.145255745167    0.257357080774    2.410525811876
 C   -1.026102886074    1.776104629649    2.177548076622
 H   -1.914626601759    2.407422220893    2.168066122595
 H    2.262643160595    1.869434065340    2.168587755874
CS   -0.069911767010   -0.467593863474   -1.816339916910
