14

 N    1.319151320061    1.494799059382    2.226372705020
 C    0.233704377158    2.317558029210    2.229514576241
 H    0.425225217040    3.392615001709    2.227009977699
 C    1.237287599379    0.075528597656    2.227390373904
 O    2.281030846697   -0.577713292405    2.224909532592
 N   -0.036550489302   -0.466611033937    2.238003608034
 C   -1.094236602115    0.334740996938    2.235510563206
 N   -2.326229718571   -0.269058032142    2.190104739997
 H   -2.335164186892   -1.268751918653    2.359675348562
 H   -3.144807462774    0.257370287258    2.465004864794
 C   -1.025654603681    1.776117836133    2.232027129540
 H   -1.914178319366    2.407435427377    2.222545175513
 H    2.263091442988    1.869447271824    2.223066808792
CS   -0.070286309501   -0.467604897566   -1.861857475792
