14

 N    1.320047884845    1.494825472350    2.335330810856
 C    0.234600941942    2.317584442178    2.338472682077
 H    0.426121781824    3.392641414677    2.335968083535
 C    1.238184164163    0.075555010624    2.336348479740
 O    2.281927411481   -0.577686879437    2.333867638428
 N   -0.035653924518   -0.466584620969    2.346961713870
 C   -1.093340037331    0.334767409906    2.344468669042
 N   -2.325333153787   -0.269031619174    2.299062845833
 H   -2.334267622108   -1.268725505685    2.468633454398
 H   -3.143910897990    0.257396700226    2.573962970630
 C   -1.024758038897    1.776144249101    2.340985235376
 H   -1.913281754582    2.407461840345    2.331503281349
 H    2.263988007772    1.869473684792    2.332024914628
CS   -0.071035394482   -0.467626965751   -1.952892593558
