14

 N    1.320496167237    1.494838678834    2.389809863774
 C    0.235049224334    2.317597648662    2.392951734995
 H    0.426570064216    3.392654621161    2.390447136453
 C    1.238632446555    0.075568217108    2.390827532658
 O    2.282375693873   -0.577673672953    2.388346691346
 N   -0.035205642126   -0.466571414485    2.401440766788
 C   -1.092891754939    0.334780616390    2.398947721960
 N   -2.324884871395   -0.269018412690    2.353541898751
 H   -2.333819339716   -1.268712299201    2.523112507316
 H   -3.143462615598    0.257409906710    2.628442023548
 C   -1.024309756505    1.776157455585    2.395464288294
 H   -1.912833472190    2.407475046829    2.385982334267
 H    2.264436290164    1.869486891276    2.386503967546
CS   -0.071409936973   -0.467637999844   -1.998410152440
