14

 N    1.320944449629    1.494851885318    2.444288916692
 C    0.235497506726    2.317610855146    2.447430787913
 H    0.427018346608    3.392667827645    2.444926189371
 C    1.239080728947    0.075581423592    2.445306585576
 O    2.282823976265   -0.577660466469    2.442825744264
 N   -0.034757359734   -0.466558208001    2.455919819706
 C   -1.092443472547    0.334793822874    2.453426774878
 N   -2.324436589003   -0.269005206206    2.408020951669
 H   -2.333371057324   -1.268699092717    2.577591560234
 H   -3.143014333206    0.257423113194    2.682921076466
 C   -1.023861474113    1.776170662069    2.449943341212
 H   -1.912385189798    2.407488253313    2.440461387185
 H    2.264884572556    1.869500097760    2.440983020464
CS   -0.071784479464   -0.467649033936   -2.043927711323
