14

 N    1.322737579197    1.494904711253    2.662205128364
 C    0.237290636294    2.317663681081    2.665346999585
 H    0.428811476176    3.392720653580    2.662842401043
 C    1.240873858515    0.075634249527    2.663222797248
 O    2.284617105833   -0.577607640534    2.660741955936
 N   -0.032964230166   -0.466505382066    2.673836031378
 C   -1.090650342979    0.334846648809    2.671342986550
 N   -2.322643459435   -0.268952380271    2.625937163341
 H   -2.331577927756   -1.268646266782    2.795507771906
 H   -3.141221203638    0.257475939129    2.900837288138
 C   -1.022068344545    1.776223488004    2.667859552884
 H   -1.910592060230    2.407541079248    2.658377598857
 H    2.266677702124    1.869552923695    2.658899232136
CS   -0.073282649427   -0.467693170306   -2.225997946853
