14

 N    1.323185861589    1.494917917737    2.716684181282
 C    0.237738918686    2.317676887565    2.719826052503
 H    0.429259758568    3.392733860064    2.717321453961
 C    1.241322140907    0.075647456011    2.717701850166
 O    2.285065388225   -0.577594434050    2.715221008854
 N   -0.032515947774   -0.466492175582    2.728315084296
 C   -1.090202060587    0.334859855293    2.725822039468
 N   -2.322195177043   -0.268939173787    2.680416216259
 H   -2.331129645364   -1.268633060298    2.849986824824
 H   -3.140772921246    0.257489145613    2.955316341056
 C   -1.021620062153    1.776236694488    2.722338605802
 H   -1.910143777838    2.407554285732    2.712856651775
 H    2.267125984516    1.869566130179    2.713378285054
CS   -0.073657191918   -0.467704204398   -2.271515505736
