14

 N    1.324530708765    1.494957537189    2.880121340035
 C    0.239083765862    2.317716507017    2.883263211256
 H    0.430604605744    3.392773479516    2.880758612714
 C    1.242666988083    0.075687075463    2.881139008919
 O    2.286410235401   -0.577554814598    2.878658167607
 N   -0.031171100598   -0.466452556130    2.891752243049
 C   -1.088857213411    0.334899474745    2.889259198221
 N   -2.320850329867   -0.268899554335    2.843853375012
 H   -2.329784798188   -1.268593440846    3.013423983577
 H   -3.139428074070    0.257528765065    3.118753499809
 C   -1.020275214977    1.776276313940    2.885775764555
 H   -1.908798930662    2.407593905184    2.876293810528
 H    2.268470831692    1.869605749631    2.876815443807
CS   -0.074780819390   -0.467737306676   -2.408068182384
