14

 N    1.326323838334    1.495010363124    3.098037551707
 C    0.240876895431    2.317769332952    3.101179422928
 H    0.432397735313    3.392826305451    3.098674824386
 C    1.244460117652    0.075739901398    3.099055220591
 O    2.288203364970   -0.577501988663    3.096574379279
 N   -0.029377971029   -0.466399730195    3.109668454721
 C   -1.087064083842    0.334952300680    3.107175409893
 N   -2.319057200298   -0.268846728400    3.061769586684
 H   -2.327991668619   -1.268540614911    3.231340195249
 H   -3.137634944501    0.257581591000    3.336669711481
 C   -1.018482085408    1.776329139875    3.103691976227
 H   -1.907005801093    2.407646731119    3.094210022200
 H    2.270263961261    1.869658575566    3.094731655479
CS   -0.076278989354   -0.467781443045   -2.590138417915
