14

 N    1.328116967902    1.495063189059    3.315953763379
 C    0.242670024999    2.317822158887    3.319095634600
 H    0.434190864881    3.392879131386    3.316591036058
 C    1.246253247220    0.075792727333    3.316971432263
 O    2.289996494538   -0.577449162728    3.314490590951
 N   -0.027584841461   -0.466346904260    3.327584666393
 C   -1.085270954274    0.335005126615    3.325091621565
 N   -2.317264070730   -0.268793902465    3.279685798356
 H   -2.326198539051   -1.268487788976    3.449256406921
 H   -3.135841814933    0.257634416935    3.554585923153
 C   -1.016688955840    1.776381965810    3.321608187899
 H   -1.905212671525    2.407699557054    3.312126233872
 H    2.272057090829    1.869711401501    3.312647867151
CS   -0.077777159317   -0.467825579415   -2.772208653445
