14

 N    1.329013532686    1.495089602027    3.424911869215
 C    0.243566589783    2.317848571855    3.428053740436
 H    0.435087429665    3.392905544354    3.425549141894
 C    1.247149812004    0.075819140301    3.425929538099
 O    2.290893059322   -0.577422749760    3.423448696787
 N   -0.026688276677   -0.466320491292    3.436542772229
 C   -1.084374389490    0.335031539583    3.434049727401
 N   -2.316367505946   -0.268767489497    3.388643904192
 H   -2.325301974267   -1.268461376008    3.558214512757
 H   -3.134945250149    0.257660829903    3.663544028989
 C   -1.015792391056    1.776408378778    3.430566293735
 H   -1.904316106741    2.407725970022    3.421084339708
 H    2.272953655613    1.869737814469    3.421605972987
CS   -0.078526244299   -0.467847647600   -2.863243771211
