14

 N    1.330358379862    1.495129221479    3.588349027969
 C    0.244911436959    2.317888191307    3.591490899190
 H    0.436432276841    3.392945163806    3.588986300648
 C    1.248494659180    0.075858759753    3.589366696853
 O    2.292237906498   -0.577383130308    3.586885855541
 N   -0.025343429501   -0.466280871840    3.599979930983
 C   -1.083029542314    0.335071159035    3.597486886155
 N   -2.315022658770   -0.268727870045    3.552081062946
 H   -2.323957127091   -1.268421756556    3.721651671511
 H   -3.133600402973    0.257700449355    3.826981187743
 C   -1.014447543880    1.776447998230    3.594003452489
 H   -1.902971259565    2.407765589474    3.584521498462
 H    2.274298502789    1.869777433921    3.585043131741
CS   -0.079649871771   -0.467880749878   -2.999796447859
