14

 N    1.332599791823    1.495195253898    3.860744292559
 C    0.247152848920    2.317954223726    3.863886163780
 H    0.438673688802    3.393011196225    3.861381565238
 C    1.250736071141    0.075924792172    3.861761961443
 O    2.294479318459   -0.577317097889    3.859281120131
 N   -0.023102017540   -0.466214839421    3.872375195573
 C   -1.080788130353    0.335137191454    3.869882150745
 N   -2.312781246809   -0.268661837626    3.824476327536
 H   -2.321715715130   -1.268355724137    3.994046936101
 H   -3.131358991012    0.257766481774    4.099376452333
 C   -1.012206131919    1.776514030649    3.866398717079
 H   -1.900729847604    2.407831621893    3.856916763052
 H    2.276539914750    1.869843466340    3.857438396331
CS   -0.081522584225   -0.467935920340   -3.227384242272
