14

 N    1.333496356607    1.495221666866    3.969702398395
 C    0.248049413704    2.317980636694    3.972844269616
 H    0.439570253586    3.393037609193    3.970339671074
 C    1.251632635925    0.075951205140    3.970720067279
 O    2.295375883243   -0.577290684921    3.968239225967
 N   -0.022205452756   -0.466188426453    3.981333301409
 C   -1.079891565569    0.335163604422    3.978840256581
 N   -2.311884682025   -0.268635424658    3.933434433372
 H   -2.320819150346   -1.268329311169    4.103005041937
 H   -3.130462426228    0.257792894742    4.208334558169
 C   -1.011309567135    1.776540443617    3.975356822915
 H   -1.899833282820    2.407858034861    3.965874868888
 H    2.277436479534    1.869869879308    3.966396502167
CS   -0.082271669207   -0.467957988525   -3.318419360037
