14

 N    1.335289486175    1.495274492801    4.187618610067
 C    0.249842543272    2.318033462629    4.190760481288
 H    0.441363383154    3.393090435128    4.188255882746
 C    1.253425765493    0.076004031075    4.188636278951
 O    2.297169012811   -0.577237858986    4.186155437639
 N   -0.020412323188   -0.466135600518    4.199249513081
 C   -1.078098436001    0.335216430357    4.196756468253
 N   -2.310091552457   -0.268582598723    4.151350645044
 H   -2.319026020778   -1.268276485234    4.320921253609
 H   -3.128669296660    0.257845720677    4.426250769841
 C   -1.009516437567    1.776593269552    4.193273034587
 H   -1.898040153252    2.407910860796    4.183791080560
 H    2.279229609102    1.869922705243    4.184312713839
CS   -0.083769839170   -0.468002124895   -3.500489595568
