14

 N    1.335737768567    1.495287699285    4.242097662985
 C    0.250290825664    2.318046669113    4.245239534206
 H    0.441811665546    3.393103641612    4.242734935664
 C    1.253874047885    0.076017237559    4.243115331869
 O    2.297617295203   -0.577224652502    4.240634490557
 N   -0.019964040796   -0.466122394034    4.253728565999
 C   -1.077650153609    0.335229636841    4.251235521171
 N   -2.309643270065   -0.268569392239    4.205829697962
 H   -2.318577738386   -1.268263278750    4.375400306527
 H   -3.128221014268    0.257858927161    4.480729822759
 C   -1.009068155175    1.776606476036    4.247752087505
 H   -1.897591870860    2.407924067280    4.238270133478
 H    2.279677891494    1.869935911727    4.238791766757
CS   -0.084144381661   -0.468013158987   -3.546007154450
