14

 N    1.336186050959    1.495300905769    4.296576715903
 C    0.250739108056    2.318059875597    4.299718587124
 H    0.442259947938    3.393116848096    4.297213988582
 C    1.254322330277    0.076030444043    4.297594384787
 O    2.298065577595   -0.577211446018    4.295113543475
 N   -0.019515758404   -0.466109187550    4.308207618917
 C   -1.077201871217    0.335242843325    4.305714574089
 N   -2.309194987673   -0.268556185755    4.260308750880
 H   -2.318129455994   -1.268250072266    4.429879359445
 H   -3.127772731876    0.257872133645    4.535208875677
 C   -1.008619872783    1.776619682520    4.302231140423
 H   -1.897143588468    2.407937273764    4.292749186396
 H    2.280126173886    1.869949118211    4.293270819675
CS   -0.084518924152   -0.468024193080   -3.591524713333
