14

 N    1.336634333351    1.495314112253    4.351055768821
 C    0.251187390448    2.318073082081    4.354197640042
 H    0.442708230330    3.393130054580    4.351693041500
 C    1.254770612669    0.076043650527    4.352073437705
 O    2.298513859987   -0.577198239534    4.349592596393
 N   -0.019067476012   -0.466095981066    4.362686671835
 C   -1.076753588825    0.335256049809    4.360193627007
 N   -2.308746705281   -0.268542979271    4.314787803798
 H   -2.317681173602   -1.268236865782    4.484358412363
 H   -3.127324449484    0.257885340129    4.589687928595
 C   -1.008171590391    1.776632889004    4.356710193341
 H   -1.896695306076    2.407950480248    4.347228239314
 H    2.280574456278    1.869962324695    4.347749872593
CS   -0.084893466642   -0.468035227172   -3.637042272216
