14

 N    1.337530898135    1.495340525221    4.460013874657
 C    0.252083955232    2.318099495049    4.463155745878
 H    0.443604795114    3.393156467548    4.460651147336
 C    1.255667177453    0.076070063495    4.461031543541
 O    2.299410424771   -0.577171826566    4.458550702229
 N   -0.018170911228   -0.466069568098    4.471644777671
 C   -1.075857024041    0.335282462777    4.469151732843
 N   -2.307850140497   -0.268516566303    4.423745909634
 H   -2.316784608818   -1.268210452814    4.593316518199
 H   -3.126427884700    0.257911753097    4.698646034431
 C   -1.007275025607    1.776659301972    4.465668299177
 H   -1.895798741292    2.407976893216    4.456186345150
 H    2.281471021062    1.869988737663    4.456707978429
CS   -0.085642551624   -0.468057295357   -3.728077389981
