14

 N    1.339772310096    1.495406557640    4.732409139247
 C    0.254325367193    2.318165527468    4.735551010468
 H    0.445846207075    3.393222499967    4.733046411926
 C    1.257908589414    0.076136095914    4.733426808131
 O    2.301651836732   -0.577105794147    4.730945966819
 N   -0.015929499267   -0.466003535679    4.744040042261
 C   -1.073615612080    0.335348495196    4.741546997433
 N   -2.305608728536   -0.268450533884    4.696141174224
 H   -2.314543196857   -1.268144420395    4.865711782789
 H   -3.124186472739    0.257977785516    4.971041299021
 C   -1.005033613646    1.776725334391    4.738063563767
 H   -1.893557329331    2.408042925635    4.728581609740
 H    2.283712433023    1.870054770082    4.729103243019
CS   -0.087515264078   -0.468112465819   -3.955665184394
