14

 N    1.340220592488    1.495419764124    4.786888192165
 C    0.254773649585    2.318178733952    4.790030063386
 H    0.446294489467    3.393235706451    4.787525464844
 C    1.258356871806    0.076149302398    4.787905861049
 O    2.302100119124   -0.577092587663    4.785425019737
 N   -0.015481216875   -0.465990329195    4.798519095179
 C   -1.073167329688    0.335361701680    4.796026050351
 N   -2.305160446144   -0.268437327400    4.750620227142
 H   -2.314094914465   -1.268131213911    4.920190835707
 H   -3.123738190347    0.257990992000    5.025520351939
 C   -1.004585331254    1.776738540875    4.792542616685
 H   -1.893109046939    2.408056132119    4.783060662658
 H    2.284160715415    1.870067976566    4.783582295937
CS   -0.087889806569   -0.468123499912   -4.001182743277
