14

 N    1.340668874880    1.495432970608    4.841367245083
 C    0.255221931977    2.318191940436    4.844509116304
 H    0.446742771859    3.393248912935    4.842004517762
 C    1.258805154198    0.076162508882    4.842384913967
 O    2.302548401516   -0.577079381179    4.839904072655
 N   -0.015032934483   -0.465977122711    4.852998148097
 C   -1.072719047296    0.335374908164    4.850505103269
 N   -2.304712163752   -0.268424120916    4.805099280060
 H   -2.313646632073   -1.268118007427    4.974669888625
 H   -3.123289907955    0.258004198484    5.079999404857
 C   -1.004137048862    1.776751747359    4.847021669603
 H   -1.892660764547    2.408069338603    4.837539715576
 H    2.284608997807    1.870081183050    4.838061348855
CS   -0.088264349060   -0.468134534004   -4.046700302160
