14

 N    1.342013722056    1.495472590059    5.004804403837
 C    0.256566779153    2.318231559887    5.007946275058
 H    0.448087619035    3.393288532386    5.005441676516
 C    1.260150001374    0.076202128333    5.005822072721
 O    2.303893248692   -0.577039761728    5.003341231409
 N   -0.013688087307   -0.465937503260    5.016435306851
 C   -1.071374200120    0.335414527615    5.013942262023
 N   -2.303367316576   -0.268384501465    4.968536438814
 H   -2.312301784897   -1.268078387976    5.138107047379
 H   -3.121945060779    0.258043817935    5.243436563611
 C   -1.002792201686    1.776791366810    5.010458828357
 H   -1.891315917371    2.408108958054    5.000976874330
 H    2.285953844983    1.870120802501    5.001498507609
CS   -0.089387976532   -0.468167636282   -4.183252978808
