14

 N    1.343358569232    1.495512209511    5.168241562591
 C    0.257911626329    2.318271179339    5.171383433812
 H    0.449432466211    3.393328151838    5.168878835270
 C    1.261494848550    0.076241747785    5.169259231475
 O    2.305238095868   -0.577000142276    5.166778390163
 N   -0.012343240131   -0.465897883808    5.179872465605
 C   -1.070029352944    0.335454147067    5.177379420777
 N   -2.302022469400   -0.268344882013    5.131973597568
 H   -2.310956937721   -1.268038768524    5.301544206133
 H   -3.120600213603    0.258083437387    5.406873722365
 C   -1.001447354510    1.776830986262    5.173895987111
 H   -1.889971070195    2.408148577506    5.164414033084
 H    2.287298692159    1.870160421953    5.164935666363
CS   -0.090511604005   -0.468200738559   -4.319805655456
