14

 N    1.345151698800    1.495565035446    5.386157774262
 C    0.259704755897    2.318324005274    5.389299645483
 H    0.451225595779    3.393380977773    5.386795046941
 C    1.263287978118    0.076294573720    5.387175443146
 O    2.307031225436   -0.576947316341    5.384694601834
 N   -0.010550110563   -0.465845057873    5.397788677276
 C   -1.068236223376    0.335506973002    5.395295632448
 N   -2.300229339832   -0.268292056078    5.349889809239
 H   -2.309163808153   -1.267985942589    5.519460417804
 H   -3.118807084035    0.258136263322    5.624789934036
 C   -0.999654224942    1.776883812197    5.391812198782
 H   -1.888177940627    2.408201403441    5.382330244755
 H    2.289091821727    1.870213247888    5.382851878034
CS   -0.092009773968   -0.468244874929   -4.501875890986
