16

 N   -0.870673223110    1.112826659390    0.200307496752
 C    0.499942189299    1.312301337231    0.196675862376
 H    0.821726485637    2.356046268107    0.218094678069
 C   -1.470388492539   -0.140288500163    0.175777506096
 O   -2.688162524071   -0.307231206230    0.176773586870
 N   -0.545082476928   -1.177066110005    0.148120969107
 H   -0.939656184791   -2.115580419854    0.127612095709
 C    0.860647901467   -1.091027397687    0.139672918316
 O    1.548968573895   -2.114644619489    0.111564979763
 C    1.390417082532    0.277361471047    0.168279287450
 C    2.882706976138    0.461219796509    0.163448477624
 H    3.144254605218    1.529647673377    0.186102645771
 H    3.322851289728    0.002899577087   -0.735659773822
 H    3.333712182847   -0.037266688797    1.035385314537
 H   -1.512979446439    1.897079697564    0.220202915042
NA   -0.876368290632    1.137079408659   -0.899410362682
