16

 N   -0.870593357604    1.112486547869    0.215729530379
 C    0.500022054805    1.311961225710    0.212097896003
 H    0.821806351143    2.355706156586    0.233516711696
 C   -1.470308627033   -0.140628611684    0.191199539723
 O   -2.688082658565   -0.307571317751    0.192195620497
 N   -0.545002611422   -1.177406221526    0.163543002734
 H   -0.939576319285   -2.115920531375    0.143034129336
 C    0.860727766973   -1.091367509208    0.155094951943
 O    1.549048439401   -2.114984731010    0.126987013390
 C    1.390496948038    0.277021359526    0.183701321077
 C    2.882786841644    0.460879684988    0.178870511251
 H    3.144334470724    1.529307561856    0.201524679398
 H    3.322931155234    0.002559465566   -0.720237740195
 H    3.333792048353   -0.037606800318    1.050807348164
 H   -1.512899580933    1.896739586043    0.235624948669
NA   -0.876806158538    1.138944092526   -0.983962679913
