16

 N   -0.870513492099    1.112146436347    0.231151564005
 C    0.500101920310    1.311621114188    0.227519929629
 H    0.821886216648    2.355366045064    0.248938745322
 C   -1.470228761528   -0.140968723206    0.206621573349
 O   -2.688002793060   -0.307911429273    0.207617654123
 N   -0.544922745917   -1.177746333048    0.178965036360
 H   -0.939496453780   -2.116260642897    0.158456162962
 C    0.860807632478   -1.091707620730    0.170516985569
 O    1.549128304906   -2.115324842532    0.142409047016
 C    1.390576813543    0.276681248004    0.199123354703
 C    2.882866707149    0.460539573466    0.194292544877
 H    3.144414336229    1.528967450334    0.216946713024
 H    3.323011020739    0.002219354044   -0.704815706569
 H    3.333871913858   -0.037946911840    1.066229381790
 H   -1.512819715428    1.896399474521    0.251046982295
NA   -0.877244026443    1.140808776392   -1.068514997144
