16

 N   -0.870114164571    1.110445878738    0.308261732138
 C    0.500501247838    1.309920556579    0.304630097762
 H    0.822285544176    2.353665487455    0.326048913455
 C   -1.469829434000   -0.142669280815    0.283731741482
 O   -2.687603465532   -0.309611986882    0.284727822256
 N   -0.544523418389   -1.179446890657    0.256075204493
 H   -0.939097126252   -2.117961200506    0.235566331095
 C    0.861206960006   -1.093408178339    0.247627153702
 O    1.549527632434   -2.117025400141    0.219519215149
 C    1.390976141071    0.274980690395    0.276233522836
 C    2.883266034677    0.458839015857    0.271402713010
 H    3.144813663757    1.527266892725    0.294056881157
 H    3.323410348267    0.000518796435   -0.627705538436
 H    3.334271241386   -0.039647469449    1.143339549923
 H   -1.512420387900    1.894698916912    0.328157150428
NA   -0.879433365971    1.150132195723   -1.491276583300
