16

 N   -0.869954433559    1.109765655694    0.339105799392
 C    0.500660978850    1.309240333535    0.335474165016
 H    0.822445275188    2.352985264411    0.356892980709
 C   -1.469669702988   -0.143349503859    0.314575808736
 O   -2.687443734520   -0.310292209926    0.315571889510
 N   -0.544363687377   -1.180127113701    0.286919271747
 H   -0.938937395240   -2.118641423550    0.266410398349
 C    0.861366691018   -1.094088401383    0.278471220956
 O    1.549687363446   -2.117705623185    0.250363282403
 C    1.391135872083    0.274300467351    0.307077590090
 C    2.883425765689    0.458158792813    0.302246780264
 H    3.144973394768    1.526586669681    0.324900948411
 H    3.323570079279   -0.000161426609   -0.596861471182
 H    3.334430972398   -0.040327692493    1.174183617177
 H   -1.512260656888    1.894018693868    0.359001217682
NA   -0.880309101782    1.153861563456   -1.660381217762
