16

 N   -0.869634971537    1.108405209606    0.400793933898
 C    0.500980440872    1.307879887447    0.397162299522
 H    0.822764737210    2.351624818323    0.418581115215
 C   -1.469350240966   -0.144709949947    0.376263943242
 O   -2.687124272498   -0.311652656014    0.377260024016
 N   -0.544044225355   -1.181487559789    0.348607406253
 H   -0.938617933218   -2.120001869638    0.328098532855
 C    0.861686153040   -1.095448847471    0.340159355462
 O    1.550006825468   -2.119066069273    0.312051416909
 C    1.391455334105    0.272940021263    0.368765724596
 C    2.883745227711    0.456798346725    0.363934914770
 H    3.145292856791    1.525226223593    0.386589082917
 H    3.323889541301   -0.001521872697   -0.535173336676
 H    3.334750434420   -0.041688138581    1.235871751683
 H   -1.511941194866    1.892658247780    0.420689352188
NA   -0.882060573404    1.161320298921   -1.998590486686
