16

 N   -0.869555106032    1.108065098085    0.416215967525
 C    0.501060306377    1.307539775926    0.412584333149
 H    0.822844602715    2.351284706802    0.434003148842
 C   -1.469270375461   -0.145050061468    0.391685976869
 O   -2.687044406993   -0.311992767535    0.392682057643
 N   -0.543964359850   -1.181827671310    0.364029439880
 H   -0.938538067713   -2.120341981159    0.343520566482
 C    0.861766018545   -1.095788958992    0.355581389089
 O    1.550086690973   -2.119406180794    0.327473450536
 C    1.391535199610    0.272599909742    0.384187758223
 C    2.883825093216    0.456458235204    0.379356948397
 H    3.145372722296    1.524886112072    0.402011116544
 H    3.323969406806   -0.001861984218   -0.519751303049
 H    3.334830299925   -0.042028250102    1.251293785310
 H   -1.511861329361    1.892318136259    0.436111385815
NA   -0.882498441310    1.163184982787   -2.083142803917
