16

 N   -0.869475240526    1.107724986563    0.431638001151
 C    0.501140171883    1.307199664404    0.428006366775
 H    0.822924468221    2.350944595280    0.449425182468
 C   -1.469190509955   -0.145390172990    0.407108010495
 O   -2.686964541487   -0.312332879057    0.408104091269
 N   -0.543884494344   -1.182167782832    0.379451473506
 H   -0.938458202207   -2.120682092681    0.358942600108
 C    0.861845884051   -1.096129070514    0.371003422715
 O    1.550166556479   -2.119746292316    0.342895484162
 C    1.391615065116    0.272259798220    0.399609791849
 C    2.883904958722    0.456118123682    0.394778982023
 H    3.145452587802    1.524546000550    0.417433150170
 H    3.324049272312   -0.002202095740   -0.504329269423
 H    3.334910165431   -0.042368361624    1.266715818936
 H   -1.511781463855    1.891978024737    0.451533419441
NA   -0.882936309215    1.165049666653   -2.167695121148
