16

 N   -0.869235644009    1.106704651997    0.477904102031
 C    0.501379768400    1.306179329838    0.474272467655
 H    0.823164064738    2.349924260714    0.495691283348
 C   -1.468950913438   -0.146410507556    0.453374111375
 O   -2.686724944970   -0.313353213623    0.454370192149
 N   -0.543644897827   -1.183188117398    0.425717574386
 H   -0.938218605690   -2.121702427247    0.405208700988
 C    0.862085480568   -1.097149405080    0.417269523595
 O    1.550406152996   -2.120766626882    0.389161585042
 C    1.391854661633    0.271239463654    0.445875892729
 C    2.884144555239    0.455097789116    0.441045082903
 H    3.145692184319    1.523525665984    0.463699251050
 H    3.324288868829   -0.003222430306   -0.458063168543
 H    3.335149761948   -0.043388696190    1.312981919816
 H   -1.511541867338    1.890957690171    0.497799520321
NA   -0.884249912932    1.170643718252   -2.421352072841
