16

 N   -0.868836316481    1.105004094388    0.555014270164
 C    0.501779095928    1.304478772229    0.551382635788
 H    0.823563392266    2.348223703105    0.572801451481
 C   -1.468551585910   -0.148111065165    0.530484279508
 O   -2.686325617442   -0.315053771232    0.531480360282
 N   -0.543245570299   -1.184888675007    0.502827742519
 H   -0.937819278162   -2.123402984856    0.482318869121
 C    0.862484808096   -1.098849962689    0.494379691728
 O    1.550805480524   -2.122467184491    0.466271753175
 C    1.392253989161    0.269538906045    0.522986060862
 C    2.884543882767    0.453397231507    0.518155251036
 H    3.146091511847    1.521825108375    0.540809419183
 H    3.324688196357   -0.004922987915   -0.380953000410
 H    3.335549089476   -0.045089253799    1.390092087949
 H   -1.511142539810    1.889257132562    0.574909688454
NA   -0.886439252460    1.179967137583   -2.844113658996
