16

 N   -0.868676585470    1.104323871344    0.585858337418
 C    0.501938826939    1.303798549185    0.582226703042
 H    0.823723123277    2.347543480061    0.603645518735
 C   -1.468391854899   -0.148791288209    0.561328346762
 O   -2.686165886431   -0.315733994276    0.562324427536
 N   -0.543085839288   -1.185568898051    0.533671809773
 H   -0.937659547151   -2.124083207900    0.513162936375
 C    0.862644539107   -1.099530185733    0.525223758982
 O    1.550965211535   -2.123147407535    0.497115820429
 C    1.392413720172    0.268858683001    0.553830128116
 C    2.884703613778    0.452717008463    0.548999318290
 H    3.146251242858    1.521144885331    0.571653486437
 H    3.324847927368   -0.005603210959   -0.350108933156
 H    3.335708820487   -0.045769476843    1.420936155203
 H   -1.510982808799    1.888576909518    0.605753755708
NA   -0.887314988271    1.183696505316   -3.013218293458
