16

 N   -0.868516854459    1.103643648301    0.616702404671
 C    0.502098557950    1.303118326142    0.613070770295
 H    0.823882854288    2.346863257018    0.634489585988
 C   -1.468232123888   -0.149471511252    0.592172414015
 O   -2.686006155420   -0.316414217319    0.593168494789
 N   -0.542926108277   -1.186249121094    0.564515877026
 H   -0.937499816140   -2.124763430943    0.544007003628
 C    0.862804270118   -1.100210408776    0.556067826235
 O    1.551124942546   -2.123827630578    0.527959887682
 C    1.392573451183    0.268178459958    0.584674195369
 C    2.884863344789    0.452036785420    0.579843385543
 H    3.146410973869    1.520464662288    0.602497553690
 H    3.325007658379   -0.006283434002   -0.319264865903
 H    3.335868551498   -0.046449699886    1.451780222456
 H   -1.510823077788    1.887896686475    0.636597822961
NA   -0.888190724082    1.187425873048   -3.182322927920
