16

 N   -0.868357123448    1.102963425257    0.647546471924
 C    0.502258288961    1.302438103098    0.643914837548
 H    0.824042585299    2.346183033974    0.665333653241
 C   -1.468072392877   -0.150151734296    0.623016481268
 O   -2.685846424409   -0.317094440363    0.624012562042
 N   -0.542766377266   -1.186929344138    0.595359944279
 H   -0.937340085129   -2.125443653987    0.574851070881
 C    0.862964001129   -1.100890631820    0.586911893488
 O    1.551284673557   -2.124507853622    0.558803954935
 C    1.392733182194    0.267498236914    0.615518262622
 C    2.885023075800    0.451356562376    0.610687452796
 H    3.146570704880    1.519784439244    0.633341620943
 H    3.325167389390   -0.006963657046   -0.288420798650
 H    3.336028282509   -0.047129922930    1.482624289709
 H   -1.510663346777    1.887216463431    0.667441890214
NA   -0.889066459893    1.191155240781   -3.351427562382
