16

 N   -0.868117526931    1.101943090692    0.693812572804
 C    0.502497885478    1.301417768533    0.690180938428
 H    0.824282181816    2.345162699409    0.711599754121
 C   -1.467832796360   -0.151172068861    0.669282582148
 O   -2.685606827892   -0.318114774928    0.670278662922
 N   -0.542526780749   -1.187949678703    0.641626045159
 H   -0.937100488612   -2.126463988552    0.621117171761
 C    0.863203597646   -1.101910966385    0.633177994368
 O    1.551524270074   -2.125528188187    0.605070055815
 C    1.392972778711    0.266477902349    0.661784363502
 C    2.885262672317    0.450336227811    0.656953553676
 H    3.146810301397    1.518764104679    0.679607721823
 H    3.325406985907   -0.007983991611   -0.242154697770
 H    3.336267879026   -0.048150257495    1.528890390589
 H   -1.510423750260    1.886196128866    0.713707991094
NA   -0.890380063610    1.196749292379   -3.605084514076
