16

 N   -0.867877930414    1.100922756126    0.740078673684
 C    0.502737481995    1.300397433967    0.736447039308
 H    0.824521778333    2.344142364843    0.757865855001
 C   -1.467593199843   -0.152192403427    0.715548683028
 O   -2.685367231375   -0.319135109494    0.716544763802
 N   -0.542287184232   -1.188970013269    0.687892146039
 H   -0.936860892095   -2.127484323118    0.667383272641
 C    0.863443194163   -1.102931300951    0.679444095248
 O    1.551763866591   -2.126548522753    0.651336156695
 C    1.393212375228    0.265457567783    0.708050464382
 C    2.885502268834    0.449315893245    0.703219654556
 H    3.147049897914    1.517743770113    0.725873822703
 H    3.325646582424   -0.009004326177   -0.195888596890
 H    3.336507475543   -0.049170592061    1.575156491469
 H   -1.510184153743    1.885175794300    0.759974091974
NA   -0.891693667326    1.202343343978   -3.858741465769
