16

 N   -0.867638333898    1.099902421561    0.786344774564
 C    0.502977078511    1.299377099402    0.782713140188
 H    0.824761374849    2.343122030278    0.804131955881
 C   -1.467353603327   -0.153212737992    0.761814783908
 O   -2.685127634859   -0.320155444059    0.762810864682
 N   -0.542047587716   -1.189990347834    0.734158246919
 H   -0.936621295579   -2.128504657683    0.713649373521
 C    0.863682790679   -1.103951635516    0.725710196128
 O    1.552003463107   -2.127568857318    0.697602257575
 C    1.393451971744    0.264437233218    0.754316565262
 C    2.885741865350    0.448295558680    0.749485755436
 H    3.147289494430    1.516723435548    0.772139923583
 H    3.325886178940   -0.010024660742   -0.149622496010
 H    3.336747072059   -0.050190926626    1.621422592349
 H   -1.509944557227    1.884155459735    0.806240192854
NA   -0.893007271043    1.207937395577   -4.112398417462
