16

 N   -0.867398737381    1.098882086995    0.832610875444
 C    0.503216675028    1.298356764836    0.828979241068
 H    0.825000971366    2.342101695712    0.850398056761
 C   -1.467114006810   -0.154233072558    0.808080884788
 O   -2.684888038342   -0.321175778625    0.809076965562
 N   -0.541807991199   -1.191010682400    0.780424347799
 H   -0.936381699062   -2.129524992249    0.759915474401
 C    0.863922387196   -1.104971970082    0.771976297008
 O    1.552243059624   -2.128589191884    0.743868358455
 C    1.393691568261    0.263416898652    0.800582666142
 C    2.885981461867    0.447275224114    0.795751856316
 H    3.147529090947    1.515703100982    0.818406024463
 H    3.326125775457   -0.011044995308   -0.103356395130
 H    3.336986668576   -0.051211261192    1.667688693229
 H   -1.509704960710    1.883135125169    0.852506293734
NA   -0.894320874759    1.213531447175   -4.366055369155
