16

 N   -0.867159140864    1.097861752430    0.878876976324
 C    0.503456271545    1.297336430271    0.875245341948
 H    0.825240567883    2.341081361147    0.896664157641
 C   -1.466874410293   -0.155253407123    0.854346985668
 O   -2.684648441825   -0.322196113190    0.855343066442
 N   -0.541568394682   -1.192031016965    0.826690448679
 H   -0.936142102545   -2.130545326814    0.806181575281
 C    0.864161983713   -1.105992304647    0.818242397888
 O    1.552482656141   -2.129609526449    0.790134459335
 C    1.393931164778    0.262396564087    0.846848767022
 C    2.886221058384    0.446254889549    0.842017957196
 H    3.147768687464    1.514682766417    0.864672125343
 H    3.326365371974   -0.012065329873   -0.057090294250
 H    3.337226265093   -0.052231595757    1.713954794109
 H   -1.509465364193    1.882114790604    0.898772394614
NA   -0.895634478476    1.219125498774   -4.619712320848
