16

 N   -0.866999409853    1.097181529386    0.909721043577
 C    0.503616002556    1.296656207227    0.906089409201
 H    0.825400298894    2.340401138103    0.927508224894
 C   -1.466714679282   -0.155933630167    0.885191052921
 O   -2.684488710814   -0.322876336234    0.886187133695
 N   -0.541408663671   -1.192711240009    0.857534515932
 H   -0.935982371534   -2.131225549858    0.837025642534
 C    0.864321714724   -1.106672527691    0.849086465141
 O    1.552642387152   -2.130289749493    0.820978526588
 C    1.394090895789    0.261716341043    0.877692834275
 C    2.886380789395    0.445574666505    0.872862024449
 H    3.147928418475    1.514002543373    0.895516192596
 H    3.326525102985   -0.012745552917   -0.026246226997
 H    3.337385996104   -0.052911818801    1.744798861362
 H   -1.509305633182    1.881434567560    0.929616461867
NA   -0.896510214287    1.222854866507   -4.788816955310
