16

 N   -0.866919544348    1.096841417864    0.925143077204
 C    0.503695868061    1.296316095705    0.921511442828
 H    0.825480164399    2.340061026581    0.942930258521
 C   -1.466634813777   -0.156273741689    0.900613086548
 O   -2.684408845309   -0.323216447756    0.901609167322
 N   -0.541328798166   -1.193051351531    0.872956549559
 H   -0.935902506029   -2.131565661380    0.852447676161
 C    0.864401580229   -1.107012639213    0.864508498768
 O    1.552722252657   -2.130629861015    0.836400560215
 C    1.394170761294    0.261376229521    0.893114867902
 C    2.886460654900    0.445234554983    0.888284058076
 H    3.148008283980    1.513662431851    0.910938226223
 H    3.326604968490   -0.013085664439   -0.010824193370
 H    3.337465861609   -0.053251930323    1.760220894989
 H   -1.509225767677    1.881094456038    0.945038495494
NA   -0.896948082193    1.224719550373   -4.873369272541
