16

 N   -0.866759813336    1.096161194820    0.955987144457
 C    0.503855599073    1.295635872661    0.952355510081
 H    0.825639895411    2.339380803537    0.973774325774
 C   -1.466475082765   -0.156953964733    0.931457153801
 O   -2.684249114297   -0.323896670800    0.932453234575
 N   -0.541169067154   -1.193731574575    0.903800616812
 H   -0.935742775017   -2.132245884424    0.883291743414
 C    0.864561311241   -1.107692862257    0.895352566021
 O    1.552881983669   -2.131310084059    0.867244627468
 C    1.394330492306    0.260696006477    0.923958935155
 C    2.886620385912    0.444554331939    0.919128125329
 H    3.148168014992    1.512982208807    0.941782293476
 H    3.326764699502   -0.013765887483    0.020019873883
 H    3.337625592621   -0.053932153367    1.791064962242
 H   -1.509066036665    1.880414232994    0.975882562747
NA   -0.897823818004    1.228448918105   -5.042473907003
