16

 N   -0.866679947831    1.095821083298    0.971409178083
 C    0.503935464578    1.295295761139    0.967777543707
 H    0.825719760916    2.339040692015    0.989196359400
 C   -1.466395217260   -0.157294076255    0.946879187427
 O   -2.684169248792   -0.324236782322    0.947875268201
 N   -0.541089201649   -1.194071686097    0.919222650438
 H   -0.935662909512   -2.132585995946    0.898713777040
 C    0.864641176746   -1.108032973779    0.910774599647
 O    1.552961849174   -2.131650195581    0.882666661094
 C    1.394410357811    0.260355894955    0.939380968781
 C    2.886700251417    0.444214220417    0.934550158955
 H    3.148247880497    1.512642097285    0.957204327102
 H    3.326844565007   -0.014105999005    0.035441907509
 H    3.337705458126   -0.054272264889    1.806486995868
 H   -1.508986171160    1.880074121472    0.991304596373
NA   -0.898261685909    1.230313601972   -5.127026224234
