16

 N   -0.866041023786    1.093100191124    1.094785447097
 C    0.504574388623    1.292574868965    1.091153812721
 H    0.826358684961    2.336319799841    1.112572628414
 C   -1.465756293215   -0.160014968429    1.070255456441
 O   -2.683530324747   -0.326957674496    1.071251537215
 N   -0.540450277604   -1.196792578271    1.042598919452
 H   -0.935023985467   -2.135306888120    1.022090046054
 C    0.865280100791   -1.110753865953    1.034150868661
 O    1.553600773219   -2.134371087755    1.006042930108
 C    1.395049281856    0.257635002781    1.062757237795
 C    2.887339175462    0.441493328243    1.057926427969
 H    3.148886804542    1.509921205111    1.080580596116
 H    3.327483489052   -0.016826891179    0.158818176523
 H    3.338344382171   -0.056993157063    1.929863264882
 H   -1.508347247115    1.877353229298    1.114680865387
NA   -0.901764629154    1.245231072902   -5.803444762082
