16

 N   -0.865801427269    1.092079856558    1.141051547976
 C    0.504813985140    1.291554534399    1.137419913600
 H    0.826598281478    2.335299465275    1.158838729293
 C   -1.465516696698   -0.161035302995    1.116521557320
 O   -2.683290728230   -0.327978009062    1.117517638094
 N   -0.540210681087   -1.197812912837    1.088865020331
 H   -0.934784388950   -2.136327222686    1.068356146933
 C    0.865519697308   -1.111774200519    1.080416969540
 O    1.553840369736   -2.135391422321    1.052309030987
 C    1.395288878373    0.256614668215    1.109023338674
 C    2.887578771979    0.440472993677    1.104192528848
 H    3.149126401059    1.508900870545    1.126846696995
 H    3.327723085569   -0.017847225745    0.205084277402
 H    3.338583978688   -0.058013491629    1.976129365761
 H   -1.508107650598    1.876332894732    1.160946966266
NA   -0.903078232870    1.250825124500   -6.057101713776
