16

 N   -0.865721561764    1.091739745036    1.156473581603
 C    0.504893850645    1.291214422877    1.152841947227
 H    0.826678146983    2.334959353753    1.174260762920
 C   -1.465436831193   -0.161375414517    1.131943590947
 O   -2.683210862725   -0.328318120584    1.132939671721
 N   -0.540130815582   -1.198153024359    1.104287053958
 H   -0.934704523445   -2.136667334208    1.083778180560
 C    0.865599562813   -1.112114312041    1.095839003167
 O    1.553920235241   -2.135731533843    1.067731064614
 C    1.395368743878    0.256274556693    1.124445372301
 C    2.887658637484    0.440132882155    1.119614562475
 H    3.149206266564    1.508560759023    1.142268730622
 H    3.327802951074   -0.018187337267    0.220506311029
 H    3.338663844193   -0.058353603151    1.991551399388
 H   -1.508027785093    1.875992783210    1.176368999893
NA   -0.903516100776    1.252689808367   -6.141654031007
