16

 N   -0.865641696258    1.091399633515    1.171895615230
 C    0.504973716151    1.290874311356    1.168263980854
 H    0.826758012489    2.334619242232    1.189682796547
 C   -1.465356965687   -0.161715526038    1.147365624574
 O   -2.683130997219   -0.328658232105    1.148361705348
 N   -0.540050950076   -1.198493135880    1.119709087585
 H   -0.934624657939   -2.137007445729    1.099200214187
 C    0.865679428319   -1.112454423562    1.111261036794
 O    1.554000100747   -2.136071645364    1.083153098241
 C    1.395448609384    0.255934445172    1.139867405928
 C    2.887738502990    0.439792770634    1.135036596102
 H    3.149286132070    1.508220647502    1.157690764249
 H    3.327882816580   -0.018527448788    0.235928344656
 H    3.338743709699   -0.058693714672    2.006973433015
 H   -1.507947919587    1.875652671689    1.191791033520
NA   -0.903953968682    1.254554492233   -6.226206348238
