16

 N   -0.865322234236    1.090039187427    1.233583749736
 C    0.505293178173    1.289513865268    1.229952115360
 H    0.827077474511    2.333258796144    1.251370931053
 C   -1.465037503665   -0.163075972126    1.209053759080
 O   -2.682811535197   -0.330018678193    1.210049839854
 N   -0.539731488054   -1.199853581968    1.181397222091
 H   -0.934305195917   -2.138367891817    1.160888348693
 C    0.865998890341   -1.113814869650    1.172949171300
 O    1.554319562769   -2.137432091452    1.144841232747
 C    1.395768071406    0.254573999084    1.201555540434
 C    2.888057965012    0.438432324546    1.196724730608
 H    3.149605594092    1.506860201414    1.219378898755
 H    3.328202278602   -0.019887894876    0.297616479162
 H    3.339063171721   -0.060054160760    2.068661567521
 H   -1.507628457565    1.874292225601    1.253479168026
NA   -0.905705440304    1.262013227698   -6.564415617162
