16

 N   -0.865242368730    1.089699075905    1.249005783363
 C    0.505373043679    1.289173753746    1.245374148987
 H    0.827157340017    2.332918684622    1.266792964680
 C   -1.464957638159   -0.163416083648    1.224475792707
 O   -2.682731669691   -0.330358789715    1.225471873481
 N   -0.539651622548   -1.200193693490    1.196819255718
 H   -0.934225330411   -2.138708003339    1.176310382320
 C    0.866078755847   -1.114154981172    1.188371204927
 O    1.554399428275   -2.137772202974    1.160263266374
 C    1.395847936912    0.254233887562    1.216977574061
 C    2.888137830518    0.438092213024    1.212146764235
 H    3.149685459598    1.506520089892    1.234800932382
 H    3.328282144108   -0.020228006398    0.313038512789
 H    3.339143037227   -0.060394272282    2.084083601148
 H   -1.507548592059    1.873952114079    1.268901201653
NA   -0.906143308209    1.263877911564   -6.648967934393
