16

 N   -0.865162503225    1.089358964384    1.264427816989
 C    0.505452909184    1.288833642225    1.260796182613
 H    0.827237205522    2.332578573101    1.282214998306
 C   -1.464877772654   -0.163756195169    1.239897826333
 O   -2.682651804186   -0.330698901236    1.240893907107
 N   -0.539571757043   -1.200533805011    1.212241289344
 H   -0.934145464906   -2.139048114860    1.191732415946
 C    0.866158621352   -1.114495092693    1.203793238553
 O    1.554479293780   -2.138112314495    1.175685300000
 C    1.395927802417    0.253893776041    1.232399607687
 C    2.888217696023    0.437752101503    1.227568797861
 H    3.149765325103    1.506179978371    1.250222966008
 H    3.328362009613   -0.020568117919    0.328460546415
 H    3.339222902732   -0.060734383803    2.099505634774
 H   -1.507468726554    1.873612002558    1.284323235279
NA   -0.906581176115    1.265742595430   -6.733520251624
