16

 N   -0.865002772214    1.088678741340    1.295271884243
 C    0.505612640195    1.288153419181    1.291640249867
 H    0.827396936533    2.331898350057    1.313059065560
 C   -1.464718041643   -0.164436418213    1.270741893587
 O   -2.682492073175   -0.331379124280    1.271737974361
 N   -0.539412026032   -1.201214028055    1.243085356598
 H   -0.933985733895   -2.139728337904    1.222576483200
 C    0.866318352363   -1.115175315737    1.234637305807
 O    1.554639024791   -2.138792537539    1.206529367254
 C    1.396087533428    0.253213552997    1.263243674941
 C    2.888377427034    0.437071878459    1.258412865115
 H    3.149925056114    1.505499755327    1.281067033262
 H    3.328521740624   -0.021248340963    0.359304613669
 H    3.339382633743   -0.061414606847    2.130349702028
 H   -1.507308995543    1.872931779514    1.315167302533
NA   -0.907456911926    1.269471963163   -6.902624886086
