16

 N   -0.864843041203    1.087998518296    1.326115951496
 C    0.505772371206    1.287473196137    1.322484317120
 H    0.827556667544    2.331218127013    1.343903132813
 C   -1.464558310632   -0.165116641257    1.301585960840
 O   -2.682332342164   -0.332059347324    1.302582041614
 N   -0.539252295021   -1.201894251099    1.273929423851
 H   -0.933826002884   -2.140408560948    1.253420550453
 C    0.866478083374   -1.115855538781    1.265481373060
 O    1.554798755802   -2.139472760583    1.237373434507
 C    1.396247264439    0.252533329953    1.294087742194
 C    2.888537158045    0.436391655415    1.289256932368
 H    3.150084787125    1.504819532283    1.311911100515
 H    3.328681471635   -0.021928564007    0.390148680922
 H    3.339542364754   -0.062094829891    2.161193769281
 H   -1.507149264532    1.872251556470    1.346011369786
NA   -0.908332647737    1.273201330895   -7.071729520548
