16

 N   -0.864523579180    1.086638072209    1.387804086002
 C    0.506091833229    1.286112750050    1.384172451626
 H    0.827876129567    2.329857680926    1.405591267319
 C   -1.464238848609   -0.166477087344    1.363274095346
 O   -2.682012880141   -0.333419793411    1.364270176120
 N   -0.538932832998   -1.203254697186    1.335617558357
 H   -0.933506540861   -2.141769007035    1.315108684959
 C    0.866797545397   -1.117215984868    1.327169507566
 O    1.555118217825   -2.140833206670    1.299061569013
 C    1.396566726462    0.251172883866    1.355775876700
 C    2.888856620068    0.435031209328    1.350945066874
 H    3.150404249148    1.503459086196    1.373599235021
 H    3.329000933658   -0.023289010094    0.451836815428
 H    3.339861826777   -0.063455275978    2.222881903787
 H   -1.506829802509    1.870891110383    1.407699504292
NA   -0.910084119359    1.280660066360   -7.409938789472
