16

 N   -0.864283982664    1.085617737643    1.434070186882
 C    0.506331429745    1.285092415484    1.430438552506
 H    0.828115726083    2.328837346360    1.451857368199
 C   -1.463999252093   -0.167497421910    1.409540196226
 O   -2.681773283625   -0.334440127977    1.410536277000
 N   -0.538693236482   -1.204275031752    1.381883659237
 H   -0.933266944345   -2.142789341601    1.361374785839
 C    0.867037141913   -1.118236319434    1.373435608446
 O    1.555357814341   -2.141853541236    1.345327669893
 C    1.396806322978    0.250152549300    1.402041977580
 C    2.889096216584    0.434010874762    1.397211167754
 H    3.150643845664    1.502438751630    1.419865335901
 H    3.329240530174   -0.024309344660    0.498102916308
 H    3.340101423293   -0.064475610544    2.269148004667
 H   -1.506590205993    1.869870775817    1.453965605172
NA   -0.911397723076    1.286254117959   -7.663595741165
