16

 N   -0.864044386147    1.084597403078    1.480336287762
 C    0.506571026262    1.284072080919    1.476704653386
 H    0.828355322600    2.327817011795    1.498123469079
 C   -1.463759655576   -0.168517756475    1.455806297106
 O   -2.681533687108   -0.335460462542    1.456802377880
 N   -0.538453639965   -1.205295366317    1.428149760117
 H   -0.933027347828   -2.143809676166    1.407640886719
 C    0.867276738430   -1.119256653999    1.419701709326
 O    1.555597410858   -2.142873875801    1.391593770773
 C    1.397045919495    0.249132214735    1.448308078460
 C    2.889335813101    0.432990540197    1.443477268634
 H    3.150883442181    1.501418417065    1.466131436781
 H    3.329480126691   -0.025329679225    0.544369017188
 H    3.340341019810   -0.065495945109    2.315414105547
 H   -1.506350609476    1.868850441252    1.500231706052
NA   -0.912711326792    1.291848169558   -7.917252692858
