16

 N   -0.863724924124    1.083236956991    1.542024422269
 C    0.506890488285    1.282711634832    1.538392787893
 H    0.828674784623    2.326456565708    1.559811603586
 C   -1.463440193553   -0.169878202562    1.517494431613
 O   -2.681214225085   -0.336820908629    1.518490512387
 N   -0.538134177942   -1.206655812404    1.489837894624
 H   -0.932707885805   -2.145170122253    1.469329021226
 C    0.867596200453   -1.120617100086    1.481389843833
 O    1.555916872881   -2.144234321888    1.453281905280
 C    1.397365381518    0.247771768648    1.509996212967
 C    2.889655275124    0.431630094110    1.505165403141
 H    3.151202904204    1.500057970978    1.527819571288
 H    3.329799588714   -0.026690125312    0.606057151695
 H    3.340660481833   -0.066856391196    2.377102240054
 H   -1.506031147453    1.867489995165    1.561919840559
NA   -0.914462798415    1.299306905023   -8.255461961782
