17

 N   -3.295230704787   -1.026522863191    0.469471939844
 C   -2.085042637943   -0.371316659515    0.473433563812
 N   -0.851630223640   -0.969994353977    0.485471848717
 C    0.118792976416   -0.079818212366    0.473599391744
 N   -0.084283860997    1.281819921148    0.466764231402
 H    0.719543264254    1.901780460903    0.384776208980
 N    1.444247730653   -0.498492934046    0.395252088509
 H    2.098783935985    0.033310290354    0.962892865239
 H    1.523052818044   -1.499193077981    0.556835426498
 C   -1.343557603314    1.967853624679    0.479718018079
 O   -1.371137972419    3.196026709456    0.475629889651
 C   -2.416342729290    0.994160235405    0.485919216019
 N   -3.787416031059    1.180491280718    0.485844031303
 C   -4.280939525570   -0.058111733327    0.475513931638
 H   -5.338437438838   -0.312258355159    0.472567287212
 H   -3.420327701318   -2.033105948423    0.460812388813
CS    1.794725871253   -0.588170659435   -0.537015565403
