17

 N   -3.377251585482   -1.005535973673    0.687646499565
 C   -2.167063518638   -0.350329769997    0.691608123533
 N   -0.933651104335   -0.949007464459    0.703646408438
 C    0.036772095721   -0.058831322848    0.691773951465
 N   -0.166304741692    1.302806810666    0.684938791123
 H    0.637522383559    1.922767350421    0.602950768701
 N    1.362226849958   -0.477506044528    0.613426648230
 H    2.016763055290    0.054297179872    1.181067424960
 H    1.441031937349   -1.478206188463    0.775009986219
 C   -1.425578484009    1.988840514197    0.697892577800
 O   -1.453158853114    3.217013598974    0.693804449372
 C   -2.498363609985    1.015147124923    0.704093775740
 N   -3.869436911754    1.201478170236    0.704018591024
 C   -4.362960406265   -0.037124843809    0.693688491359
 H   -5.420458319533   -0.291271465641    0.690741846933
 H   -3.502348582013   -2.012119058905    0.678986948534
CS    1.887944060858   -0.612022632612   -0.784974832638
