17

 N   -3.410059937760   -0.997141217866    0.774916323454
 C   -2.199871870916   -0.341935014190    0.778877947422
 N   -0.966459456613   -0.940612708652    0.790916232327
 C    0.003963743443   -0.050436567041    0.779043775354
 N   -0.199113093970    1.311201566473    0.772208615012
 H    0.604714031281    1.931162106228    0.690220592590
 N    1.329418497680   -0.469111288721    0.700696472119
 H    1.983954703012    0.062691935679    1.268337248849
 H    1.408223585071   -1.469811432656    0.862279810108
 C   -1.458386836287    1.997235270004    0.785162401689
 O   -1.485967205392    3.225408354781    0.781074273261
 C   -2.531171962263    1.023541880730    0.791363599629
 N   -3.902245264032    1.209872926043    0.791288414913
 C   -4.395768758543   -0.028730088002    0.780958315248
 H   -5.453266671811   -0.282876709834    0.778011670822
 H   -3.535156934291   -2.003724303098    0.766256772423
CS    1.925231336700   -0.621563421882   -0.884158539532
