17

 N   -3.426464113899   -0.992943839962    0.818551235398
 C   -2.216276047055   -0.337737636286    0.822512859366
 N   -0.982863632752   -0.936415330748    0.834551144271
 C   -0.012440432696   -0.046239189137    0.822678687298
 N   -0.215517270109    1.315398944377    0.815843526956
 H    0.588309855142    1.935359484132    0.733855504534
 N    1.313014321541   -0.464913910817    0.744331384063
 H    1.967550526873    0.066889313583    1.311972160793
 H    1.391819408932   -1.465614054752    0.905914722052
 C   -1.474791012426    2.001432647908    0.828797313633
 O   -1.502371381531    3.229605732685    0.824709185205
 C   -2.547576138402    1.027739258634    0.834998511573
 N   -3.918649440171    1.214070303947    0.834923326857
 C   -4.412172934682   -0.024532710098    0.824593227192
 H   -5.469670847950   -0.278679331930    0.821646582766
 H   -3.551561110430   -1.999526925194    0.809891684367
CS    1.943874974621   -0.626333816518   -0.933750392979
