17

 N   -3.442868290038   -0.988746462059    0.862186147342
 C   -2.232680223194   -0.333540258383    0.866147771310
 N   -0.999267808891   -0.932217952845    0.878186056215
 C   -0.028844608835   -0.042041811234    0.866313599242
 N   -0.231921446248    1.319596322280    0.859478438900
 H    0.571905679003    1.939556862035    0.777490416478
 N    1.296610145402   -0.460716532914    0.787966296007
 H    1.951146350734    0.071086691486    1.355607072737
 H    1.375415232793   -1.461416676849    0.949549633996
 C   -1.491195188565    2.005630025811    0.872432225577
 O   -1.518775557670    3.233803110588    0.868344097149
 C   -2.563980314541    1.031936636537    0.878633423517
 N   -3.935053616310    1.218267681850    0.878558238801
 C   -4.428577110821   -0.020335332195    0.868228139136
 H   -5.486075024089   -0.274481954027    0.865281494710
 H   -3.567965286569   -1.995329547291    0.853526596311
CS    1.962518612542   -0.631104211153   -0.983342246426
