17

 N   -4.771606557293   -0.648758851873    4.396614014818
 C   -3.561418490449    0.006447351803    4.400575638786
 N   -2.328006076146   -0.592230342659    4.412613923691
 C   -1.357582876090    0.297945798952    4.400741466718
 N   -1.560659713503    1.659583932466    4.393906306376
 H   -0.756832588252    2.279544472221    4.311918283954
 N   -0.032128121853   -0.120728922728    4.322394163483
 H    0.622408083479    0.411074301672    4.890034940213
 H    0.046676965538   -1.121429066663    4.483977501472
 C   -2.819933455820    2.345617635997    4.406860093053
 O   -2.847513824925    3.573790720774    4.402771964625
 C   -3.892718581796    1.371924246723    4.413061290993
 N   -5.263791883565    1.558255292036    4.412986106277
 C   -5.757315378076    0.319652277991    4.402656006612
 H   -6.814813291344    0.065505656159    4.399709362186
 H   -4.896703553824   -1.655341937105    4.387954463787
CS    3.472653284145   -1.017506176619   -5.000282375637
