17

 N   -3.459272466177   -0.984549084155    0.905821059286
 C   -2.249084399333   -0.329342880479    0.909782683254
 N   -1.015671985030   -0.928020574941    0.921820968159
 C   -0.045248784974   -0.037844433330    0.909948511186
 N   -0.248325622387    1.323793700184    0.903113350844
 H    0.555501502864    1.943754239939    0.821125328422
 N    1.280205969263   -0.456519155010    0.831601207951
 H    1.934742174595    0.075284069390    1.399241984681
 H    1.359011056654   -1.457219298945    0.993184545940
 C   -1.507599364704    2.009827403715    0.916067137521
 O   -1.535179733809    3.238000488492    0.911979009093
 C   -2.580384490680    1.036134014441    0.922268335461
 N   -3.951457792449    1.222465059754    0.922193150745
 C   -4.444981286960   -0.016137954291    0.911863051080
 H   -5.502479200228   -0.270284576123    0.908916406654
 H   -3.584369462708   -1.991132169387    0.897161508255
CS    1.981162250463   -0.635874605789   -1.032934099873
