17

 N   -3.475676642316   -0.980351706252    0.949455971230
 C   -2.265488575472   -0.325145502576    0.953417595198
 N   -1.032076161169   -0.923823197038    0.965455880103
 C   -0.061652961113   -0.033647055427    0.953583423130
 N   -0.264729798526    1.327991078087    0.946748262788
 H    0.539097326725    1.947951617842    0.864760240366
 N    1.263801793124   -0.452321777107    0.875236119895
 H    1.918337998456    0.079481447293    1.442876896625
 H    1.342606880515   -1.453021921042    1.036819457884
 C   -1.524003540843    2.014024781618    0.959702049465
 O   -1.551583909948    3.242197866395    0.955613921037
 C   -2.596788666819    1.040331392344    0.965903247405
 N   -3.967861968588    1.226662437657    0.965828062689
 C   -4.461385463099   -0.011940576388    0.955497963024
 H   -5.518883376367   -0.266087198220    0.952551318598
 H   -3.600773638847   -1.986934791484    0.940796420199
CS    1.999805888384   -0.640645000424   -1.082525953320
