17

 N   -3.508484994594   -0.971956950445    1.036725795118
 C   -2.298296927750   -0.316750746769    1.040687419086
 N   -1.064884513447   -0.915428441231    1.052725703991
 C   -0.094461313391   -0.025252299620    1.040853247018
 N   -0.297538150804    1.336385833894    1.034018086676
 H    0.506288974447    1.956346373649    0.952030064254
 N    1.230993440846   -0.443927021300    0.962505943783
 H    1.885529646178    0.087876203100    1.530146720513
 H    1.309798528237   -1.444627165235    1.124089281772
 C   -1.556811893121    2.022419537425    1.046971873353
 O   -1.584392262226    3.250592622202    1.042883744925
 C   -2.629597019097    1.048726148151    1.053173071293
 N   -4.000670320866    1.235057193464    1.053097886577
 C   -4.494193815377   -0.003545820581    1.042767786912
 H   -5.551691728645   -0.257692442413    1.039821142486
 H   -3.633581991125   -1.978540035677    1.028066244087
CS    2.037093164226   -0.650185789695   -1.181709660214
