17

 N   -3.557697523010   -0.959364816734    1.167630530951
 C   -2.347509456166   -0.304158613058    1.171592154919
 N   -1.114097041863   -0.902836307520    1.183630439824
 C   -0.143673841807   -0.012660165909    1.171757982851
 N   -0.346750679220    1.348977967605    1.164922822509
 H    0.457076446031    1.968938507360    1.082934800087
 N    1.181780912430   -0.431334887589    1.093410679616
 H    1.836317117762    0.100468336811    1.661051456346
 H    1.260585999821   -1.432035031524    1.254994017605
 C   -1.606024421537    2.035011671136    1.177876609186
 O   -1.633604790642    3.263184755913    1.173788480758
 C   -2.678809547513    1.061318281862    1.184077807126
 N   -4.049882849282    1.247649327175    1.184002622410
 C   -4.543406343793    0.009046313130    1.173672522745
 H   -5.600904257061   -0.245100308702    1.170725878319
 H   -3.682794519541   -1.965947901966    1.158970979920
CS    2.093024077989   -0.664496973601   -1.330485220555
