17

 N   -3.574101699149   -0.955167438831    1.211265442895
 C   -2.363913632305   -0.299961235155    1.215227066863
 N   -1.130501218002   -0.898638929617    1.227265351768
 C   -0.160078017946   -0.008462788006    1.215392894795
 N   -0.363154855359    1.353175345508    1.208557734453
 H    0.440672269892    1.973135885263    1.126569712031
 N    1.165376736291   -0.427137509686    1.137045591560
 H    1.819912941623    0.104665714714    1.704686368290
 H    1.244181823682   -1.427837653621    1.298628929549
 C   -1.622428597676    2.039209049039    1.221511521130
 O   -1.650008966781    3.267382133816    1.217423392702
 C   -2.695213723652    1.065515659765    1.227712719070
 N   -4.066287025421    1.251846705078    1.227637534354
 C   -4.559810519932    0.013243691033    1.217307434689
 H   -5.617308433200   -0.240902930799    1.214360790263
 H   -3.699198695680   -1.961750524063    1.202605891864
CS    2.111667715910   -0.669267368236   -1.380077074003
