17

 N   -3.590505875288   -0.950970060927    1.254900354839
 C   -2.380317808444   -0.295763857251    1.258861978807
 N   -1.146905394141   -0.894441551713    1.270900263712
 C   -0.176482194085   -0.004265410102    1.259027806739
 N   -0.379559031498    1.357372723412    1.252192646397
 H    0.424268093753    1.977333263167    1.170204623975
 N    1.148972560152   -0.422940131782    1.180680503504
 H    1.803508765484    0.108863092618    1.748321280234
 H    1.227777647543   -1.423640275717    1.342263841493
 C   -1.638832773815    2.043406426943    1.265146433074
 O   -1.666413142920    3.271579511720    1.261058304646
 C   -2.711617899791    1.069713037669    1.271347631014
 N   -4.082691201560    1.256044082982    1.271272446298
 C   -4.576214696071    0.017441068937    1.260942346633
 H   -5.633712609339   -0.236705552895    1.257995702207
 H   -3.715602871819   -1.957553146159    1.246240803808
CS    2.130311353831   -0.674037762872   -1.429668927450
