17

 N   -3.623314227566   -0.942575305120    1.342170178728
 C   -2.413126160722   -0.287369101444    1.346131802696
 N   -1.179713746419   -0.886046795906    1.358170087601
 C   -0.209290546363    0.004129345705    1.346297630628
 N   -0.412367383776    1.365767479219    1.339462470286
 H    0.391459741475    1.985728018974    1.257474447864
 N    1.116164207874   -0.414545375975    1.267950327393
 H    1.770700413206    0.117257848425    1.835591104123
 H    1.194969295265   -1.415245519910    1.429533665382
 C   -1.671641126093    2.051801182750    1.352416256963
 O   -1.699221495198    3.279974267527    1.348328128535
 C   -2.744426252069    1.078107793476    1.358617454903
 N   -4.115499553838    1.264438838789    1.358542270187
 C   -4.609023048349    0.025835824744    1.348212170522
 H   -5.666520961617   -0.228310797088    1.345265526096
 H   -3.748411224097   -1.949158390352    1.333510627697
CS    2.167598629673   -0.683578552142   -1.528852634344
