17

 N   -3.639718403705   -0.938377927216    1.385805090672
 C   -2.429530336861   -0.283171723540    1.389766714640
 N   -1.196117922558   -0.881849418002    1.401804999545
 C   -0.225694722502    0.008326723609    1.389932542572
 N   -0.428771559915    1.369964857123    1.383097382230
 H    0.375055565336    1.989925396878    1.301109359808
 N    1.099760031735   -0.410347998071    1.311585239337
 H    1.754296237067    0.121455226329    1.879226016067
 H    1.178565119126   -1.411048142006    1.473168577326
 C   -1.688045302232    2.055998560654    1.396051168907
 O   -1.715625671337    3.284171645431    1.391963040479
 C   -2.760830428208    1.082305171380    1.402252366847
 N   -4.131903729977    1.268636216693    1.402177182131
 C   -4.625427224488    0.030033202648    1.391847082466
 H   -5.682925137756   -0.224113419184    1.388900438040
 H   -3.764815400236   -1.944961012448    1.377145539641
CS    2.186242267594   -0.688348946778   -1.578444487791
