17

 N   -3.705335108261   -0.921588415602    1.560344738448
 C   -2.495147041417   -0.266382211926    1.564306362416
 N   -1.261734627114   -0.865059906388    1.576344647321
 C   -0.291311427058    0.025116235223    1.564472190348
 N   -0.494388264471    1.386754368737    1.557637030006
 H    0.309438860780    2.006714908492    1.475649007584
 N    1.034143327179   -0.393558486457    1.486124887113
 H    1.688679532511    0.138244737943    2.053765663843
 H    1.112948414570   -1.394258630392    1.647708225102
 C   -1.753662006788    2.072788072268    1.570590816683
 O   -1.781242375893    3.300961157045    1.566502688255
 C   -2.826447132764    1.099094682994    1.576792014623
 N   -4.197520434533    1.285425728307    1.576716829907
 C   -4.691043929044    0.046822714262    1.566386730242
 H   -5.748541842312   -0.207323907570    1.563440085816
 H   -3.830432104792   -1.928171500834    1.551685187417
CS    2.260816819278   -0.707430525319   -1.776811901579
