17

 N   -3.770951812817   -0.904798903988    1.734884386225
 C   -2.560763745973   -0.249592700312    1.738846010193
 N   -1.327351331670   -0.848270394774    1.750884295098
 C   -0.356928131614    0.041905746837    1.739011838125
 N   -0.560004969027    1.403543880351    1.732176677783
 H    0.243822156224    2.023504420106    1.650188655361
 N    0.968526622623   -0.376768974843    1.660664534890
 H    1.623062827955    0.155034249557    2.228305311620
 H    1.047331710014   -1.377469118778    1.822247872879
 C   -1.819278711344    2.089577583882    1.745130464460
 O   -1.846859080449    3.317750668659    1.741042336032
 C   -2.892063837320    1.115884194608    1.751331662400
 N   -4.263137139089    1.302215239921    1.751256477684
 C   -4.756660633600    0.063612225876    1.740926378019
 H   -5.814158546868   -0.190534395956    1.737979733593
 H   -3.896048809348   -1.911381989220    1.726224835194
CS    2.335391370963   -0.726512103861   -1.975179315367
