17

 N   -3.787355988956   -0.900601526085    1.778519298169
 C   -2.577167922112   -0.245395322409    1.782480922137
 N   -1.343755507809   -0.844073016871    1.794519207042
 C   -0.373332307753    0.046103124740    1.782646750069
 N   -0.576409145166    1.407741258254    1.775811589727
 H    0.227417980085    2.027701798009    1.693823567305
 N    0.952122446484   -0.372571596940    1.704299446834
 H    1.606658651816    0.159231627460    2.271940223564
 H    1.030927533875   -1.373271740875    1.865882784823
 C   -1.835682887483    2.093774961785    1.788765376404
 O   -1.863263256588    3.321948046562    1.784677247976
 C   -2.908468013459    1.120081572511    1.794966574344
 N   -4.279541315228    1.306412617824    1.794891389628
 C   -4.773064809739    0.067809603779    1.784561289963
 H   -5.830562723007   -0.186337018053    1.781614645537
 H   -3.912452985487   -1.907184611317    1.769859747138
CS    2.354035008884   -0.731282498496   -2.024771168814
