17

 N   -3.803760165095   -0.896404148181    1.822154210113
 C   -2.593572098251   -0.241197944505    1.826115834081
 N   -1.360159683948   -0.839875638967    1.838154118986
 C   -0.389736483892    0.050300502644    1.826281662013
 N   -0.592813321305    1.411938636158    1.819446501671
 H    0.211013803946    2.031899175913    1.737458479249
 N    0.935718270345   -0.368374219036    1.747934358778
 H    1.590254475677    0.163429005364    2.315575135508
 H    1.014523357736   -1.369074362971    1.909517696767
 C   -1.852087063622    2.097972339689    1.832400288348
 O   -1.879667432727    3.326145424466    1.828312159920
 C   -2.924872189598    1.124278950415    1.838601486288
 N   -4.295945491367    1.310609995728    1.838526301572
 C   -4.789468985878    0.072006981683    1.828196201907
 H   -5.846966899146   -0.182139640149    1.825249557481
 H   -3.928857161626   -1.902987233413    1.813494659082
CS    2.372678646805   -0.736052893132   -2.074363022261
