17

 N   -3.852972693512   -0.883812014470    1.953058945946
 C   -2.642784626668   -0.228605810794    1.957020569914
 N   -1.409372212365   -0.827283505256    1.969058854819
 C   -0.438949012309    0.062892636355    1.957186397846
 N   -0.642025849722    1.424530769869    1.950351237504
 H    0.161801275529    2.044491309624    1.868363215082
 N    0.886505741928   -0.355782085325    1.878839094611
 H    1.541041947260    0.176021139075    2.446479871341
 H    0.965310829319   -1.356482229260    2.040422432600
 C   -1.901299592039    2.110564473400    1.963305024181
 O   -1.928879961144    3.338737558177    1.959216895753
 C   -2.974084718015    1.136871084126    1.969506222121
 N   -4.345158019784    1.323202129439    1.969431037405
 C   -4.838681514295    0.084599115394    1.959100937740
 H   -5.896179427563   -0.169547506438    1.956154293314
 H   -3.978069690043   -1.890395099702    1.944399394915
CS    2.428609560568   -0.750364077038   -2.223138582602
