17

 N   -3.869376869651   -0.879614636567    1.996693857890
 C   -2.659188802807   -0.224408432891    2.000655481858
 N   -1.425776388504   -0.823086127353    2.012693766763
 C   -0.455353188448    0.067090014258    2.000821309790
 N   -0.658430025861    1.428728147772    1.993986149448
 H    0.145397099390    2.048688687527    1.911998127026
 N    0.870101565789   -0.351584707422    1.922474006555
 H    1.524637771121    0.180218516978    2.490114783285
 H    0.948906653180   -1.352284851357    2.084057344544
 C   -1.917703768178    2.114761851303    2.006939936125
 O   -1.945284137283    3.342934936080    2.002851807697
 C   -2.990488894154    1.141068462029    2.013141134065
 N   -4.361562195923    1.327399507342    2.013065949349
 C   -4.855085690434    0.088796493297    2.002735849684
 H   -5.912583603702   -0.165350128535    1.999789205258
 H   -3.994473866182   -1.886197721799    1.988034306859
CS    2.447253198489   -0.755134471673   -2.272730436049
