17

 N   -3.885781045790   -0.875417258663    2.040328769834
 C   -2.675592978946   -0.220211054987    2.044290393802
 N   -1.442180564643   -0.818888749449    2.056328678707
 C   -0.471757364587    0.071287392162    2.044456221734
 N   -0.674834202000    1.432925525676    2.037621061392
 H    0.128992923251    2.052886065431    1.955633038970
 N    0.853697389650   -0.347387329518    1.966108918499
 H    1.508233594982    0.184415894882    2.533749695229
 H    0.932502477041   -1.348087473453    2.127692256488
 C   -1.934107944317    2.118959229207    2.050574848069
 O   -1.961688313422    3.347132313984    2.046486719641
 C   -3.006893070293    1.145265839933    2.056776046009
 N   -4.377966372062    1.331596885246    2.056700861293
 C   -4.871489866573    0.092993871201    2.046370761628
 H   -5.928987779841   -0.161152750631    2.043424117202
 H   -4.010878042321   -1.882000343895    2.031669218803
CS    2.465896836410   -0.759904866309   -2.322322289497
