17

 N   -3.967801926484   -0.854430369146    2.258503329555
 C   -2.757613859640   -0.199224165470    2.262464953523
 N   -1.524201445337   -0.797901859932    2.274503238428
 C   -0.553778245281    0.092274281679    2.262630781455
 N   -0.756855082694    1.453912415193    2.255795621113
 H    0.046972042557    2.073872954948    2.173807598691
 N    0.771676508956   -0.326400440001    2.184283478220
 H    1.426212714288    0.205402784399    2.751924254950
 H    0.850481596347   -1.327100583936    2.345866816209
 C   -2.016128825011    2.139946118724    2.268749407790
 O   -2.043709194116    3.368119203501    2.264661279362
 C   -3.088913950987    1.166252729450    2.274950605730
 N   -4.459987252756    1.352583774763    2.274875421014
 C   -4.953510747267    0.113980760718    2.264545321349
 H   -6.011008660535   -0.140165861114    2.261598676923
 H   -4.092898923015   -1.861013454378    2.249843778524
CS    2.559115026015   -0.783756839485   -2.570281556732
