17

 N   -4.033418631040   -0.837640857532    2.433042977331
 C   -2.823230564196   -0.182434653856    2.437004601299
 N   -1.589818149893   -0.781112348318    2.449042886204
 C   -0.619394949837    0.109063793293    2.437170429231
 N   -0.822471787250    1.470701926807    2.430335268889
 H   -0.018644661999    2.090662466562    2.348347246467
 N    0.706059804400   -0.309610928387    2.358823125996
 H    1.360596009732    0.222192296013    2.926463902726
 H    0.784864891791   -1.310311072322    2.520406463985
 C   -2.081745529567    2.156735630338    2.443289055566
 O   -2.109325898672    3.384908715115    2.439200927138
 C   -3.154530655543    1.183042241064    2.449490253506
 N   -4.525603957312    1.369373286377    2.449415068790
 C   -5.019127451823    0.130770272332    2.439084969125
 H   -6.076625365091   -0.123376349500    2.436138324699
 H   -4.158515627571   -1.844223942764    2.424383426300
CS    2.633689577699   -0.802838418027   -2.768648970520
