17

 N   -4.099035335596   -0.820851345918    2.607582625108
 C   -2.888847268752   -0.165645142242    2.611544249076
 N   -1.655434854449   -0.764322836704    2.623582533981
 C   -0.685011654393    0.125853304907    2.611710077008
 N   -0.888088491806    1.487491438421    2.604874916666
 H   -0.084261366555    2.107451978176    2.522886894244
 N    0.640443099844   -0.292821416773    2.533362773773
 H    1.294979305176    0.238981807627    3.101003550503
 H    0.719248187235   -1.293521560708    2.694946111762
 C   -2.147362234123    2.173525141952    2.617828703343
 O   -2.174942603228    3.401698226729    2.613740574915
 C   -3.220147360099    1.199831752678    2.624029901283
 N   -4.591220661868    1.386162797991    2.623954716567
 C   -5.084744156379    0.147559783946    2.613624616902
 H   -6.142242069647   -0.106586837886    2.610677972476
 H   -4.224132332127   -1.827434431150    2.598923074077
CS    2.708264129383   -0.821919996569   -2.967016384308
