17

 N   -4.115439511735   -0.816653968014    2.651217537052
 C   -2.905251444891   -0.161447764338    2.655179161020
 N   -1.671839030588   -0.760125458800    2.667217445925
 C   -0.701415830532    0.130050682811    2.655344988952
 N   -0.904492667945    1.491688816325    2.648509828610
 H   -0.100665542694    2.111649356080    2.566521806188
 N    0.624038923705   -0.288624038869    2.576997685717
 H    1.278575129037    0.243179185531    3.144638462447
 H    0.702844011096   -1.289324182804    2.738581023706
 C   -2.163766410262    2.177722519856    2.661463615287
 O   -2.191346779367    3.405895604633    2.657375486859
 C   -3.236551536238    1.204029130582    2.667664813227
 N   -4.607624838007    1.390360175895    2.667589628511
 C   -5.101148332518    0.151757161850    2.657259528846
 H   -6.158646245786   -0.102389459982    2.654312884420
 H   -4.240536508266   -1.823237053246    2.642557986021
CS    2.726907767304   -0.826690391204   -3.016608237755
