17

 N   -4.181056216291   -0.799864456400    2.825757184829
 C   -2.970868149447   -0.144658252724    2.829718808797
 N   -1.737455735144   -0.743335947186    2.841757093702
 C   -0.767032535088    0.146840194425    2.829884636729
 N   -0.970109372501    1.508478327939    2.823049476387
 H   -0.166282247250    2.128438867694    2.741061453965
 N    0.558422219149   -0.271834527255    2.751537333494
 H    1.212958424481    0.259968697145    3.319178110224
 H    0.637227306540   -1.272534671190    2.913120671483
 C   -2.229383114818    2.194512031470    2.836003263064
 O   -2.256963483923    3.422685116247    2.831915134636
 C   -3.302168240794    1.220818642196    2.842204461004
 N   -4.673241542563    1.407149687509    2.842129276288
 C   -5.166765037074    0.168546673464    2.831799176623
 H   -6.224262950342   -0.085599948368    2.828852532197
 H   -4.306153212822   -1.806447541632    2.817097633798
CS    2.801482318988   -0.845771969745   -3.214975651544
