17

 N   -4.263077096986   -0.778877566882    3.043931744549
 C   -3.052889030142   -0.123671363206    3.047893368517
 N   -1.819476615839   -0.722349057668    3.059931653422
 C   -0.849053415783    0.167827083943    3.048059196449
 N   -1.052130253196    1.529465217457    3.041224036107
 H   -0.248303127945    2.149425757212    2.959236013685
 N    0.476401338454   -0.250847637737    2.969711893214
 H    1.130937543786    0.280955586663    3.537352669944
 H    0.555206425845   -1.251547781672    3.131295231203
 C   -2.311403995513    2.215498920988    3.054177822784
 O   -2.338984364618    3.443672005765    3.050089694356
 C   -3.384189121489    1.241805531714    3.060379020724
 N   -4.755262423258    1.428136577027    3.060303836008
 C   -5.248785917769    0.189533562982    3.049973736343
 H   -6.306283831037   -0.064613058850    3.047027091917
 H   -4.388174093517   -1.785460652114    3.035272193518
CS    2.894700508593   -0.869623942922   -3.462934918779
