17

 N   -4.279481273124   -0.774680188979    3.087566656494
 C   -3.069293206280   -0.119473985303    3.091528280462
 N   -1.835880791977   -0.718151679765    3.103566565367
 C   -0.865457591921    0.172024461846    3.091694108394
 N   -1.068534429334    1.533662595360    3.084858948052
 H   -0.264707304083    2.153623135115    3.002870925630
 N    0.459997162316   -0.246650259834    3.013346805159
 H    1.114533367648    0.285152964566    3.580987581889
 H    0.538802249707   -1.247350403769    3.174930143148
 C   -2.327808171651    2.219696298891    3.097812734729
 O   -2.355388540756    3.447869383668    3.093724606301
 C   -3.400593297627    1.246002909617    3.104013932669
 N   -4.771666599396    1.432333954930    3.103938747953
 C   -5.265190093907    0.193730940885    3.093608648288
 H   -6.322688007175   -0.060415680947    3.090662003862
 H   -4.404578269655   -1.781263274211    3.078907105463
CS    2.913344146514   -0.874394337558   -3.512526772226
