17

 N   -4.295885449263   -0.770482811075    3.131201568438
 C   -3.085697382419   -0.115276607399    3.135163192406
 N   -1.852284968116   -0.713954301861    3.147201477311
 C   -0.881861768060    0.176221839750    3.135329020338
 N   -1.084938605473    1.537859973264    3.128493859996
 H   -0.281111480222    2.157820513019    3.046505837574
 N    0.443592986177   -0.242452881930    3.056981717103
 H    1.098129191509    0.289350342470    3.624622493833
 H    0.522398073568   -1.243153025865    3.218565055092
 C   -2.344212347790    2.223893676795    3.141447646673
 O   -2.371792716895    3.452066761572    3.137359518245
 C   -3.416997473766    1.250200287521    3.147648844613
 N   -4.788070775535    1.436531332834    3.147573659897
 C   -5.281594270046    0.197928318789    3.137243560232
 H   -6.339092183314   -0.056218303043    3.134296915806
 H   -4.420982445794   -1.777065896307    3.122542017407
CS    2.931987784435   -0.879164732193   -3.562118625673
