17

 N   -4.345097977680   -0.757890677365    3.262106304270
 C   -3.134909910836   -0.102684473689    3.266067928238
 N   -1.901497496533   -0.701362168151    3.278106213143
 C   -0.931074296477    0.188813973460    3.266233756170
 N   -1.134151133890    1.550452106974    3.259398595828
 H   -0.330324008639    2.170412646729    3.177410573406
 N    0.394380457760   -0.229860748220    3.187886452935
 H    1.048916663092    0.301942476180    3.755527229665
 H    0.473185545151   -1.230560892155    3.349469790924
 C   -2.393424876207    2.236485810505    3.272352382505
 O   -2.421005245312    3.464658895282    3.268264254077
 C   -3.466210002183    1.262792421231    3.278553580445
 N   -4.837283303952    1.449123466544    3.278478395729
 C   -5.330806798463    0.210520452499    3.268148296064
 H   -6.388304711731   -0.043626169333    3.265201651638
 H   -4.470194974211   -1.764473762597    3.253446753239
CS    2.987918698199   -0.893475916099   -3.710894186014
