17

 N   -4.427118858375   -0.736903787847    3.480280863991
 C   -3.216930791531   -0.081697584171    3.484242487959
 N   -1.983518377228   -0.680375278633    3.496280772864
 C   -1.013095177172    0.209800862978    3.484408315891
 N   -1.216172014585    1.571438996492    3.477573155549
 H   -0.412344889334    2.191399536247    3.395585133127
 N    0.312359577065   -0.208873858702    3.406061012656
 H    0.966895782397    0.322929365698    3.973701789386
 H    0.391164664456   -1.209574002637    3.567644350645
 C   -2.475445756902    2.257472700023    3.490526942226
 O   -2.503026126007    3.485645784800    3.486438813798
 C   -3.548230882878    1.283779310749    3.496728140166
 N   -4.919304184647    1.470110356062    3.496652955450
 C   -5.412827679158    0.231507342017    3.486322855785
 H   -6.470325592426   -0.022639279815    3.483376211359
 H   -4.552215854906   -1.743486873079    3.471621312960
CS    3.081136887804   -0.917327889276   -3.958853453249
