17

 N   -4.492735562931   -0.720114276233    3.654820511768
 C   -3.282547496087   -0.064908072557    3.658782135736
 N   -2.049135081784   -0.663585767019    3.670820420641
 C   -1.078711881728    0.226590374592    3.658947963668
 N   -1.281788719141    1.588228508106    3.652112803326
 H   -0.477961593890    2.208189047861    3.570124780904
 N    0.246742872509   -0.192084347088    3.580600660433
 H    0.901279077841    0.339718877312    4.148241437163
 H    0.325547959900   -1.192784491023    3.742183998422
 C   -2.541062461458    2.274262211637    3.665066590003
 O   -2.568642830563    3.502435296414    3.660978461575
 C   -3.613847587434    1.300568822363    3.671267787943
 N   -4.984920889203    1.486899867676    3.671192603227
 C   -5.478444383714    0.248296853631    3.660862503562
 H   -6.535942296982   -0.005849768201    3.657915859136
 H   -4.617832559462   -1.726697361465    3.646160960737
CS    3.155711439488   -0.936409467818   -4.157220867038
