17

 N   -4.509139739070   -0.715916898329    3.698455423712
 C   -3.298951672226   -0.060710694653    3.702417047680
 N   -2.065539257923   -0.659388389115    3.714455332585
 C   -1.095116057867    0.230787752496    3.702582875612
 N   -1.298192895280    1.592425886010    3.695747715270
 H   -0.494365770029    2.212386425765    3.613759692848
 N    0.230338696370   -0.187886969184    3.624235572377
 H    0.884874901702    0.343916255216    4.191876349107
 H    0.309143783761   -1.188587113119    3.785818910366
 C   -2.557466637597    2.278459589541    3.708701501947
 O   -2.585047006702    3.506632674318    3.704613373519
 C   -3.630251763573    1.304766200267    3.714902699887
 N   -5.001325065342    1.491097245580    3.714827515171
 C   -5.494848559853    0.252494231535    3.704497415506
 H   -6.552346473121   -0.001652390297    3.701550771080
 H   -4.634236735601   -1.722499983561    3.689795872681
CS    3.174355077409   -0.941179862453   -4.206812720485
