17

 N   -4.525543915209   -0.711719520426    3.742090335656
 C   -3.315355848365   -0.056513316750    3.746051959624
 N   -2.081943434062   -0.655191011212    3.758090244529
 C   -1.111520234006    0.234985130399    3.746217787556
 N   -1.314597071419    1.596623263913    3.739382627214
 H   -0.510769946168    2.216583803668    3.657394604792
 N    0.213934520231   -0.183689591281    3.667870484321
 H    0.868470725563    0.348113633119    4.235511261051
 H    0.292739607622   -1.184389735216    3.829453822310
 C   -2.573870813736    2.282656967444    3.752336413891
 O   -2.601451182841    3.510830052221    3.748248285463
 C   -3.646655939712    1.308963578170    3.758537611831
 N   -5.017729241481    1.495294623483    3.758462427115
 C   -5.511252735992    0.256691609438    3.748132327450
 H   -6.568750649260    0.002544987606    3.745185683024
 H   -4.650640911740   -1.718302605658    3.733430784625
CS    3.192998715330   -0.945950257089   -4.256404573932
