17

 N   -4.558352267487   -0.703324764619    3.829360159544
 C   -3.348164200643   -0.048118560943    3.833321783512
 N   -2.114751786340   -0.646796255405    3.845360068417
 C   -1.144328586284    0.243379886206    3.833487611444
 N   -1.347405423697    1.605018019720    3.826652451102
 H   -0.543578298446    2.224978559475    3.744664428680
 N    0.181126167953   -0.175294835474    3.755140308209
 H    0.835662373285    0.356508388926    4.322781084939
 H    0.259931255344   -1.175994979409    3.916723646198
 C   -2.606679166014    2.291051723251    3.839606237779
 O   -2.634259535119    3.519224808028    3.835518109351
 C   -3.679464291990    1.317358333977    3.845807435719
 N   -5.050537593759    1.503689379290    3.845732251003
 C   -5.544061088270    0.265086365245    3.835402151338
 H   -6.601559001538    0.010939743413    3.832455506912
 H   -4.683449264018   -1.709907849851    3.820700608513
CS    3.230285991172   -0.955491046359   -4.355588280826
