17

 N   -4.574756443626   -0.699127386715    3.872995071488
 C   -3.364568376782   -0.043921183039    3.876956695456
 N   -2.131155962479   -0.642598877501    3.888994980361
 C   -1.160732762423    0.247577264110    3.877122523388
 N   -1.363809599836    1.609215397624    3.870287363046
 H   -0.559982474585    2.229175937379    3.788299340624
 N    0.164721991814   -0.171097457570    3.798775220153
 H    0.819258197146    0.360705766830    4.366415996883
 H    0.243527079205   -1.171797601505    3.960358558142
 C   -2.623083342153    2.295249101155    3.883241149723
 O   -2.650663711258    3.523422185932    3.879153021295
 C   -3.695868468129    1.321555711881    3.889442347663
 N   -5.066941769898    1.507886757194    3.889367162947
 C   -5.560465264409    0.269283743149    3.879037063282
 H   -6.617963177677    0.015137121317    3.876090418856
 H   -4.699853440157   -1.705710471947    3.864335520457
CS    3.248929629093   -0.960261440995   -4.405180134273
