17

 N   -4.607564795904   -0.690732630908    3.960264895377
 C   -3.397376729060   -0.035526427232    3.964226519345
 N   -2.163964314757   -0.634204121694    3.976264804250
 C   -1.193541114701    0.255972019917    3.964392347277
 N   -1.396617952114    1.617610153431    3.957557186935
 H   -0.592790826863    2.237570693186    3.875569164513
 N    0.131913639536   -0.162702701763    3.886045044042
 H    0.786449844868    0.369100522637    4.453685820772
 H    0.210718726927   -1.163402845698    4.047628382031
 C   -2.655891694431    2.303643856962    3.970510973612
 O   -2.683472063536    3.531816941739    3.966422845184
 C   -3.728676820407    1.329950467688    3.976712171552
 N   -5.099750122176    1.516281513001    3.976636986836
 C   -5.593273616687    0.277678498956    3.966306887171
 H   -6.650771529955    0.023531877124    3.963360242745
 H   -4.732661792435   -1.697315716140    3.951605344346
CS    3.286216904935   -0.969802230265   -4.504363841167
