17

 N   -4.623968972043   -0.686535253005    4.003899807321
 C   -3.413780905199   -0.031329049329    4.007861431289
 N   -2.180368490896   -0.630006743791    4.019899716194
 C   -1.209945290840    0.260169397820    4.008027259221
 N   -1.413022128253    1.621807531334    4.001192098879
 H   -0.609195003002    2.241768071089    3.919204076457
 N    0.115509463397   -0.158505323860    3.929679955986
 H    0.770045668729    0.373297900540    4.497320732716
 H    0.194314550788   -1.159205467795    4.091263293975
 C   -2.672295870570    2.307841234865    4.014145885556
 O   -2.699876239675    3.536014319642    4.010057757128
 C   -3.745080996546    1.334147845591    4.020347083496
 N   -5.116154298315    1.520478890904    4.020271898780
 C   -5.609677792826    0.281875876859    4.009941799115
 H   -6.667175706094    0.027729255027    4.006995154689
 H   -4.749065968574   -1.693118338237    3.995240256290
CS    3.304860542856   -0.974572624901   -4.553955694614
