17

 N   -4.640373148182   -0.682337875101    4.047534719265
 C   -3.430185081338   -0.027131671425    4.051496343233
 N   -2.196772667035   -0.625809365887    4.063534628138
 C   -1.226349466979    0.264366775724    4.051662171165
 N   -1.429426304392    1.626004909238    4.044827010823
 H   -0.625599179141    2.245965448993    3.962838988401
 N    0.099105287258   -0.154307945956    3.973314867930
 H    0.753641492590    0.377495278444    4.540955644660
 H    0.177910374649   -1.155008089891    4.134898205919
 C   -2.688700046709    2.312038612769    4.057780797500
 O   -2.716280415814    3.540211697546    4.053692669072
 C   -3.761485172685    1.338345223495    4.063981995440
 N   -5.132558474454    1.524676268808    4.063906810724
 C   -5.626081968965    0.286073254763    4.053576711059
 H   -6.683579882233    0.031926632931    4.050630066633
 H   -4.765470144713   -1.688920960333    4.038875168234
CS    3.323504180777   -0.979343019536   -4.603547548061
