17

 N   -4.738798205015   -0.657153607680    4.309344190930
 C   -3.528610138171   -0.001947404004    4.313305814898
 N   -2.295197723868   -0.600625098466    4.325344099803
 C   -1.324774523812    0.289551043145    4.313471642830
 N   -1.527851361225    1.651189176659    4.306636482488
 H   -0.724024235974    2.271149716414    4.224648460066
 N    0.000680230425   -0.129123678535    4.235124339595
 H    0.655216435757    0.402679545865    4.802765116325
 H    0.079485317816   -1.129823822470    4.396707677584
 C   -2.787125103542    2.337222880190    4.319590269165
 O   -2.814705472647    3.565395964967    4.315502140737
 C   -3.859910229518    1.363529490916    4.325791467105
 N   -5.230983531287    1.549860536229    4.325716282389
 C   -5.724507025798    0.311257522184    4.315386182724
 H   -6.782004939066    0.057110900352    4.312439538298
 H   -4.863895201546   -1.663736692912    4.300684639899
CS    3.435366008303   -1.007965387349   -4.901098668743
