17

 N   -4.755202381154   -0.652956229776    4.352979102874
 C   -3.545014314310    0.002249973900    4.356940726842
 N   -2.311601900007   -0.596427720562    4.368979011747
 C   -1.341178699951    0.293748421049    4.357106554774
 N   -1.544255537364    1.655386554563    4.350271394432
 H   -0.740428412113    2.275347094318    4.268283372010
 N   -0.015723945714   -0.124926300631    4.278759251539
 H    0.638812259618    0.406876923769    4.846400028269
 H    0.063081141677   -1.125626444566    4.440342589528
 C   -2.803529279681    2.341420258094    4.363225181109
 O   -2.831109648786    3.569593342871    4.359137052681
 C   -3.876314405657    1.367726868820    4.369426379049
 N   -5.247387707426    1.554057914133    4.369351194333
 C   -5.740911201937    0.315454900088    4.359021094668
 H   -6.798409115205    0.061308278256    4.356074450242
 H   -4.880299377685   -1.659539315008    4.344319551843
CS    3.454009646224   -1.012735781984   -4.950690522190
