10

 C    0.524214304121    1.172779536302    0.121500451863
 H    0.917701304121    2.185908536302    0.121720451863
 C    1.136247304121   -0.077328463698    0.121536451863
 H    2.201954304121   -0.296055463698    0.121442451863
 N   -0.830873695879    0.903811536302    0.121488451863
 H   -1.575807695879    1.590461536302    0.121742451863
 C   -0.988679695879   -0.460228463698    0.121543451863
 H   -1.966303695879   -0.936244463698    0.121417451863
 N    0.190236304121   -1.086823463698    0.121532451863
LI    0.190317947268   -1.086647033289   -1.178467533601
