10

 C    0.524213129966    1.172776998959    0.140196469730
 H    0.917700129966    2.185905998959    0.140416469730
 C    1.136246129966   -0.077331001041    0.140232469730
 H    2.201953129966   -0.296058001041    0.140138469730
 N   -0.830874870034    0.903808998959    0.140184469730
 H   -1.575808870034    1.590458998959    0.140438469730
 C   -0.988680870034   -0.460231001041    0.140239469730
 H   -1.966304870034   -0.936247001041    0.140113469730
 N    0.190235129966   -1.086826001041    0.140228469730
LI    0.190329333597   -1.086622427492   -1.359771513498
