10

 C    0.524211368733    1.172773192944    0.168240496531
 H    0.917698368733    2.185902192944    0.168460496531
 C    1.136244368733   -0.077334807056    0.168276496531
 H    2.201951368733   -0.296061807056    0.168182496531
 N   -0.830876631267    0.903805192944    0.168228496531
 H   -1.575810631267    1.590455192944    0.168482496531
 C   -0.988682631267   -0.460234807056    0.168283496531
 H   -1.966306631267   -0.936250807056    0.168157496531
 N    0.190233368733   -1.086829807056    0.168272496531
LI    0.190346413091   -1.086585518797   -1.631727483342
