10

 C    0.524210781655    1.172771924272    0.177588505465
 H    0.917697781655    2.185900924272    0.177808505465
 C    1.136243781655   -0.077336075728    0.177624505465
 H    2.201950781655   -0.296063075728    0.177530505465
 N   -0.830877218345    0.903803924272    0.177576505465
 H   -1.575811218345    1.590453924272    0.177830505465
 C   -0.988683218345   -0.460236075728    0.177631505465
 H   -1.966307218345   -0.936252075728    0.177505505465
 N    0.190232781655   -1.086831075728    0.177620505465
LI    0.190352106255   -1.086573215898   -1.722379473291
