10

 C    0.524210194578    1.172770655601    0.186936514398
 H    0.917697194578    2.185899655601    0.187156514398
 C    1.136243194578   -0.077337344399    0.186972514398
 H    2.201950194578   -0.296064344399    0.186878514398
 N   -0.830877805422    0.903802655601    0.186924514398
 H   -1.575811805422    1.590452655601    0.187178514398
 C   -0.988683805422   -0.460237344399    0.186979514398
 H   -1.966307805422   -0.936253344399    0.186853514398
 N    0.190232194578   -1.086832344399    0.186968514398
LI    0.190357799420   -1.086560913000   -1.813031463239
