10

 C    0.524209607500    1.172769386929    0.196284523332
 H    0.917696607500    2.185898386929    0.196504523332
 C    1.136242607500   -0.077338613071    0.196320523332
 H    2.201949607500   -0.296065613071    0.196226523332
 N   -0.830878392500    0.903801386929    0.196272523332
 H   -1.575812392500    1.590451386929    0.196526523332
 C   -0.988684392500   -0.460238613071    0.196327523332
 H   -1.966308392500   -0.936254613071    0.196201523332
 N    0.190231607500   -1.086833613071    0.196316523332
LI    0.190363492584   -1.086548610102   -1.903683453187
