10

 C    0.524209020423    1.172768118257    0.205632532266
 H    0.917696020423    2.185897118257    0.205852532266
 C    1.136242020423   -0.077339881743    0.205668532266
 H    2.201949020423   -0.296066881743    0.205574532266
 N   -0.830878979577    0.903800118257    0.205620532266
 H   -1.575812979577    1.590450118257    0.205874532266
 C   -0.988684979577   -0.460239881743    0.205675532266
 H   -1.966308979577   -0.936255881743    0.205549532266
 N    0.190231020423   -1.086834881743    0.205664532266
LI    0.190369185749   -1.086536307203   -1.994335443135
