10

 C    0.524202562569    1.172754162870    0.308460630535
 H    0.917689562569    2.185883162870    0.308680630535
 C    1.136235562569   -0.077353837130    0.308496630535
 H    2.201942562569   -0.296080837130    0.308402630535
 N   -0.830885437431    0.903786162870    0.308448630535
 H   -1.575819437431    1.590436162870    0.308702630535
 C   -0.988691437431   -0.460253837130    0.308503630535
 H   -1.966315437431   -0.936269837130    0.308377630535
 N    0.190224562569   -1.086848837130    0.308492630535
LI    0.190431810558   -1.086400975321   -2.991507332566
