10

 C    0.524200801336    1.172750356855    0.336504657336
 H    0.917687801336    2.185879356855    0.336724657336
 C    1.136233801336   -0.077357643145    0.336540657336
 H    2.201940801336   -0.296084643145    0.336446657336
 N   -0.830887198664    0.903782356855    0.336492657336
 H   -1.575821198664    1.590432356855    0.336746657336
 C   -0.988693198664   -0.460257643145    0.336547657336
 H   -1.966317198664   -0.936273643145    0.336421657336
 N    0.190222801336   -1.086852643145    0.336536657336
LI    0.190448890052   -1.086364066626   -3.263463302411
