10

 C    0.524198453026    1.172745282169    0.373896693070
 H    0.917685453026    2.185874282169    0.374116693070
 C    1.136231453026   -0.077362717831    0.373932693070
 H    2.201938453026   -0.296089717831    0.373838693070
 N   -0.830889546974    0.903777282169    0.373884693070
 H   -1.575823546974    1.590427282169    0.374138693070
 C   -0.988695546974   -0.460262717831    0.373939693070
 H   -1.966319546974   -0.936278717831    0.373813693070
 N    0.190220453026   -1.086857717831    0.373928693070
LI    0.190471662710   -1.086314855032   -3.626071262204
