10

 C    0.524197865948    1.172744013497    0.383244702004
 H    0.917684865948    2.185873013497    0.383464702004
 C    1.136230865948   -0.077363986503    0.383280702004
 H    2.201937865948   -0.296090986503    0.383186702004
 N   -0.830890134052    0.903776013497    0.383232702004
 H   -1.575824134052    1.590426013497    0.383486702004
 C   -0.988696134052   -0.460263986503    0.383287702004
 H   -1.966320134052   -0.936279986503    0.383161702004
 N    0.190219865948   -1.086858986503    0.383276702004
LI    0.190477355874   -1.086302552134   -3.716723252152
