10

 C    0.524194343483    1.172736401468    0.439332755606
 H    0.917681343483    2.185865401468    0.439552755606
 C    1.136227343483   -0.077371598532    0.439368755606
 H    2.201934343483   -0.296098598532    0.439274755606
 N   -0.830893656517    0.903768401468    0.439320755606
 H   -1.575827656517    1.590418401468    0.439574755606
 C   -0.988699656517   -0.460271598532    0.439375755606
 H   -1.966323656517   -0.936287598532    0.439249755606
 N    0.190216343483   -1.086866598532    0.439364755606
LI    0.190511514861   -1.086228734743   -4.260635191842
