10

 C    0.524193169327    1.172733864125    0.458028773473
 H    0.917680169327    2.185862864125    0.458248773473
 C    1.136226169327   -0.077374135875    0.458064773473
 H    2.201933169327   -0.296101135875    0.457970773473
 N   -0.830894830673    0.903765864125    0.458016773473
 H   -1.575828830673    1.590415864125    0.458270773473
 C   -0.988700830673   -0.460274135875    0.458071773473
 H   -1.966324830673   -0.936290135875    0.457945773473
 N    0.190215169327   -1.086869135875    0.458060773473
LI    0.190522901190   -1.086204128947   -4.441939171738
