10

 C    0.524192582250    1.172732595453    0.467376782406
 H    0.917679582250    2.185861595453    0.467596782406
 C    1.136225582250   -0.077375404547    0.467412782406
 H    2.201932582250   -0.296102404547    0.467318782406
 N   -0.830895417750    0.903764595453    0.467364782406
 H   -1.575829417750    1.590414595453    0.467618782406
 C   -0.988701417750   -0.460275404547    0.467419782406
 H   -1.966325417750   -0.936291404547    0.467293782406
 N    0.190214582250   -1.086870404547    0.467408782406
LI    0.190528594355   -1.086191826048   -4.532591161686
