10

 C    0.524191995172    1.172731326781    0.476724791340
 H    0.917678995172    2.185860326781    0.476944791340
 C    1.136224995172   -0.077376673219    0.476760791340
 H    2.201931995172   -0.296103673219    0.476666791340
 N   -0.830896004828    0.903763326781    0.476712791340
 H   -1.575830004828    1.590413326781    0.476966791340
 C   -0.988702004828   -0.460276673219    0.476767791340
 H   -1.966326004828   -0.936292673219    0.476641791340
 N    0.190213995172   -1.086871673219    0.476756791340
LI    0.190534287519   -1.086179523150   -4.623243151635
