10

 C    0.524183189008    1.172712296708    0.616944925344
 H    0.917670189008    2.185841296708    0.617164925344
 C    1.136216189008   -0.077395703292    0.616980925344
 H    2.201923189008   -0.296122703292    0.616886925344
 N   -0.830904810992    0.903744296708    0.616932925344
 H   -1.575838810992    1.590394296708    0.617186925344
 C   -0.988710810992   -0.460295703292    0.616987925344
 H   -1.966334810992   -0.936311703292    0.616861925344
 N    0.190205189008   -1.086890703292    0.616976925344
LI    0.190619684987   -1.085994979674   -5.983023000858
