10

 C    0.524182014853    1.172709759364    0.635640943211
 H    0.917669014853    2.185838759364    0.635860943211
 C    1.136215014853   -0.077398240636    0.635676943211
 H    2.201922014853   -0.296125240636    0.635582943211
 N   -0.830905985147    0.903741759364    0.635628943211
 H   -1.575839985147    1.590391759364    0.635882943211
 C   -0.988711985147   -0.460298240636    0.635683943211
 H   -1.966335985147   -0.936314240636    0.635557943211
 N    0.190204014853   -1.086893240636    0.635672943211
LI    0.190631071316   -1.085970373877   -6.164326980755
