10

 C    0.524181427775    1.172708490693    0.644988952145
 H    0.917668427775    2.185837490693    0.645208952145
 C    1.136214427775   -0.077399509307    0.645024952145
 H    2.201921427775   -0.296126509307    0.644930952145
 N   -0.830906572225    0.903740490693    0.644976952145
 H   -1.575840572225    1.590390490693    0.645230952145
 C   -0.988712572225   -0.460299509307    0.645031952145
 H   -1.966336572225   -0.936315509307    0.644905952145
 N    0.190203427775   -1.086894509307    0.645020952145
LI    0.190636764480   -1.085958070979   -6.254978970703
