10

 C    0.524179666543    1.172704684678    0.673032978946
 H    0.917666666543    2.185833684678    0.673252978946
 C    1.136212666543   -0.077403315322    0.673068978946
 H    2.201919666543   -0.296130315322    0.672974978946
 N   -0.830908333457    0.903736684678    0.673020978946
 H   -1.575842333457    1.590386684678    0.673274978946
 C   -0.988714333457   -0.460303315322    0.673075978946
 H   -1.966338333457   -0.936319315322    0.672949978946
 N    0.190201666543   -1.086898315322    0.673064978946
LI    0.190653843974   -1.085921162284   -6.526934940548
