10

 C    0.524179079465    1.172703416006    0.682380987879
 H    0.917666079465    2.185832416006    0.682600987879
 C    1.136212079465   -0.077404583994    0.682416987879
 H    2.201919079465   -0.296131583994    0.682322987879
 N   -0.830908920535    0.903735416006    0.682368987879
 H   -1.575842920535    1.590385416006    0.682622987879
 C   -0.988714920535   -0.460304583994    0.682423987879
 H   -1.966338920535   -0.936320583994    0.682297987879
 N    0.190201079465   -1.086899583994    0.682412987879
LI    0.190659537139   -1.085908859385   -6.617586930496
