10

 C    0.524176731155    1.172698341320    0.719773023614
 H    0.917663731155    2.185827341320    0.719993023614
 C    1.136209731155   -0.077409658680    0.719809023614
 H    2.201916731155   -0.296136658680    0.719715023614
 N   -0.830911268845    0.903730341320    0.719761023614
 H   -1.575845268845    1.590380341320    0.720015023614
 C   -0.988717268845   -0.460309658680    0.719816023614
 H   -1.966341268845   -0.936325658680    0.719690023614
 N    0.190198731155   -1.086904658680    0.719805023614
LI    0.190682309797   -1.085859647792   -6.980194890289
