10

 C    0.524175556999    1.172695803977    0.738469041481
 H    0.917662556999    2.185824803977    0.738689041481
 C    1.136208556999   -0.077412196023    0.738505041481
 H    2.201915556999   -0.296139196023    0.738411041481
 N   -0.830912443001    0.903727803977    0.738457041481
 H   -1.575846443001    1.590377803977    0.738711041481
 C   -0.988718443001   -0.460312196023    0.738512041481
 H   -1.966342443001   -0.936328196023    0.738386041481
 N    0.190197556999   -1.086907196023    0.738501041481
LI    0.190693696126   -1.085835041995   -7.161498870186
