10

 C    0.524173208689    1.172690729291    0.775861077215
 H    0.917660208689    2.185819729291    0.776081077215
 C    1.136206208689   -0.077417270709    0.775897077215
 H    2.201913208689   -0.296144270709    0.775803077215
 N   -0.830914791311    0.903722729291    0.775849077215
 H   -1.575848791311    1.590372729291    0.776103077215
 C   -0.988720791311   -0.460317270709    0.775904077215
 H   -1.966344791311   -0.936333270709    0.775778077215
 N    0.190195208689   -1.086912270709    0.775893077215
LI    0.190716468784   -1.085785830402   -7.524106829979
