10

 C    0.524172621611    1.172689460619    0.785209086149
 H    0.917659621611    2.185818460619    0.785429086149
 C    1.136205621611   -0.077418539381    0.785245086149
 H    2.201912621611   -0.296145539381    0.785151086149
 N   -0.830915378389    0.903721460619    0.785197086149
 H   -1.575849378389    1.590371460619    0.785451086149
 C   -0.988721378389   -0.460318539381    0.785252086149
 H   -1.966345378389   -0.936334539381    0.785126086149
 N    0.190194621611   -1.086913539381    0.785241086149
LI    0.190722161948   -1.085773527503   -7.614758819927
