10

 C    0.524172034534    1.172688191947    0.794557095083
 H    0.917659034534    2.185817191947    0.794777095083
 C    1.136205034534   -0.077419808053    0.794593095083
 H    2.201912034534   -0.296146808053    0.794499095083
 N   -0.830915965466    0.903720191947    0.794545095083
 H   -1.575849965466    1.590370191947    0.794799095083
 C   -0.988721965466   -0.460319808053    0.794600095083
 H   -1.966345965466   -0.936335808053    0.794474095083
 N    0.190194034534   -1.086914808053    0.794589095083
LI    0.190727855113   -1.085761224605   -7.705410809875
