10

 C    0.524169686223    1.172683117261    0.831949130817
 H    0.917656686223    2.185812117261    0.832169130817
 C    1.136202686223   -0.077424882739    0.831985130817
 H    2.201909686223   -0.296151882739    0.831891130817
 N   -0.830918313777    0.903715117261    0.831937130817
 H   -1.575852313777    1.590365117261    0.832191130817
 C   -0.988724313777   -0.460324882739    0.831992130817
 H   -1.966348313777   -0.936340882739    0.831866130817
 N    0.190191686223   -1.086919882739    0.831981130817
LI    0.190750627771   -1.085712013011   -8.068018769668
