10

 C    0.524169099146    1.172681848589    0.841297139751
 H    0.917656099146    2.185810848589    0.841517139751
 C    1.136202099146   -0.077426151411    0.841333139751
 H    2.201909099146   -0.296153151411    0.841239139751
 N   -0.830918900854    0.903713848589    0.841285139751
 H   -1.575852900854    1.590363848589    0.841539139751
 C   -0.988724900854   -0.460326151411    0.841340139751
 H   -1.966348900854   -0.936342151411    0.841214139751
 N    0.190191099146   -1.086921151411    0.841329139751
LI    0.190756320935   -1.085699710113   -8.158670759616
