10

 C    0.524165576680    1.172674236560    0.897385193352
 H    0.917652576680    2.185803236560    0.897605193352
 C    1.136198576680   -0.077433763440    0.897421193352
 H    2.201905576680   -0.296160763440    0.897327193352
 N   -0.830922423320    0.903706236560    0.897373193352
 H   -1.575856423320    1.590356236560    0.897627193352
 C   -0.988728423320   -0.460333763440    0.897428193352
 H   -1.966352423320   -0.936349763440    0.897302193352
 N    0.190187576680   -1.086928763440    0.897417193352
LI    0.190790479922   -1.085625892723   -8.702582699306
