10

 C    0.524164989603    1.172672967888    0.906733202286
 H    0.917651989603    2.185801967888    0.906953202286
 C    1.136197989603   -0.077435032112    0.906769202286
 H    2.201904989603   -0.296162032112    0.906675202286
 N   -0.830923010397    0.903704967888    0.906721202286
 H   -1.575857010397    1.590354967888    0.906975202286
 C   -0.988729010397   -0.460335032112    0.906776202286
 H   -1.966353010397   -0.936351032112    0.906650202286
 N    0.190186989603   -1.086930032112    0.906765202286
LI    0.190796173087   -1.085613589824   -8.793234689254
