10

 C    0.524164402525    1.172671699217    0.916081211219
 H    0.917651402525    2.185800699217    0.916301211219
 C    1.136197402525   -0.077436300783    0.916117211219
 H    2.201904402525   -0.296163300783    0.916023211219
 N   -0.830923597475    0.903703699217    0.916069211219
 H   -1.575857597475    1.590353699217    0.916323211219
 C   -0.988729597475   -0.460336300783    0.916124211219
 H   -1.966353597475   -0.936352300783    0.915998211219
 N    0.190186402525   -1.086931300783    0.916113211219
LI    0.190801866251   -1.085601286926   -8.883886679202
