13

 C   -3.265248212875   -0.454572787191    0.000000000000
 H   -4.360766212875   -0.454572787191    0.000000000000
 C   -2.533781212875    0.755409212809    0.000000000000
 H   -3.071664212875    1.714028212809    0.000000000000
 C   -2.533781212875   -1.664555787191    0.000000000000
 H   -3.071663212875   -2.623174787191    0.000000000000
 C   -1.128611212875    0.760524212809    0.000000000000
 H   -0.581981212875    1.712682212809    0.000000000000
 C   -1.128611212875   -1.669669787191    0.000000000000
 H   -0.581981212875   -2.621826787191    0.000000000000
 C   -0.333574212875   -0.454572787191    0.000000000000
 O    0.952772787125   -0.454572787191    0.000000000000
RB    1.502772787125    0.498055156972    0.000000000000
