13

 C   -3.312965987418   -0.537222397123    0.000000000000
 H   -4.408483987418   -0.537222397123    0.000000000000
 C   -2.581498987418    0.672759602877    0.000000000000
 H   -3.119381987418    1.631378602877    0.000000000000
 C   -2.581498987418   -1.747205397123    0.000000000000
 H   -3.119380987418   -2.705824397123    0.000000000000
 C   -1.176328987418    0.677874602877    0.000000000000
 H   -0.629698987418    1.630032602877    0.000000000000
 C   -1.176328987418   -1.752319397123    0.000000000000
 H   -0.629698987418   -2.704476397123    0.000000000000
 C   -0.381291987418   -0.537222397123    0.000000000000
 O    0.905055012582   -0.537222397123    0.000000000000
RB    1.555055012582    0.588610627797    0.000000000000
