13

 C   -3.360683761960   -0.619872007055    0.000000000000
 H   -4.456201761960   -0.619872007055    0.000000000000
 C   -2.629216761960    0.590109992945    0.000000000000
 H   -3.167099761960    1.548728992945    0.000000000000
 C   -2.629216761960   -1.829855007055    0.000000000000
 H   -3.167098761960   -2.788474007055    0.000000000000
 C   -1.224046761960    0.595224992945    0.000000000000
 H   -0.677416761960    1.547382992945    0.000000000000
 C   -1.224046761960   -1.834969007055    0.000000000000
 H   -0.677416761960   -2.787126007055    0.000000000000
 C   -0.429009761960   -0.619872007055    0.000000000000
 O    0.857337238040   -0.619872007055    0.000000000000
RB    1.607337238040    0.679166098622    0.000000000000
