13

 C   -3.384542649232   -0.661196812021    0.000000000000
 H   -4.480060649232   -0.661196812021    0.000000000000
 C   -2.653075649232    0.548785187979    0.000000000000
 H   -3.190958649232    1.507404187979    0.000000000000
 C   -2.653075649232   -1.871179812021    0.000000000000
 H   -3.190957649232   -2.829798812021    0.000000000000
 C   -1.247905649232    0.553900187979    0.000000000000
 H   -0.701275649232    1.506058187979    0.000000000000
 C   -1.247905649232   -1.876293812021    0.000000000000
 H   -0.701275649232   -2.828450812021    0.000000000000
 C   -0.452868649232   -0.661196812021    0.000000000000
 O    0.833478350768   -0.661196812021    0.000000000000
RB    1.633478350768    0.724443834034    0.000000000000
