13

 C   -3.408401536503   -0.702521616987    0.000000000000
 H   -4.503919536503   -0.702521616987    0.000000000000
 C   -2.676934536503    0.507460383013    0.000000000000
 H   -3.214817536503    1.466079383013    0.000000000000
 C   -2.676934536503   -1.912504616987    0.000000000000
 H   -3.214816536503   -2.871123616987    0.000000000000
 C   -1.271764536503    0.512575383013    0.000000000000
 H   -0.725134536503    1.464733383013    0.000000000000
 C   -1.271764536503   -1.917618616987    0.000000000000
 H   -0.725134536503   -2.869775616987    0.000000000000
 C   -0.476727536503   -0.702521616987    0.000000000000
 O    0.809619463497   -0.702521616987    0.000000000000
RB    1.659619463497    0.769721569447    0.000000000000
