13

 C   -3.479978198317   -0.826496031885    0.000000000000
 H   -4.575496198317   -0.826496031885    0.000000000000
 C   -2.748511198317    0.383485968115    0.000000000000
 H   -3.286394198317    1.342104968115    0.000000000000
 C   -2.748511198317   -2.036479031885    0.000000000000
 H   -3.286393198317   -2.995098031885    0.000000000000
 C   -1.343341198317    0.388600968115    0.000000000000
 H   -0.796711198317    1.340758968115    0.000000000000
 C   -1.343341198317   -2.041593031885    0.000000000000
 H   -0.796711198317   -2.993750031885    0.000000000000
 C   -0.548304198317   -0.826496031885    0.000000000000
 O    0.738042801683   -0.826496031885    0.000000000000
RB    1.738042801683    0.905554775684    0.000000000000
