13

 C   -3.670849296488   -1.157094471614    0.000000000000
 H   -4.766367296488   -1.157094471614    0.000000000000
 C   -2.939382296488    0.052887528386    0.000000000000
 H   -3.477265296488    1.011506528386    0.000000000000
 C   -2.939382296488   -2.367077471614    0.000000000000
 H   -3.477264296488   -3.325696471614    0.000000000000
 C   -1.534212296488    0.058002528386    0.000000000000
 H   -0.987582296488    1.010160528386    0.000000000000
 C   -1.534212296488   -2.372191471614    0.000000000000
 H   -0.987582296488   -3.324348471614    0.000000000000
 C   -0.739175296488   -1.157094471614    0.000000000000
 O    0.547171703512   -1.157094471614    0.000000000000
RB    1.947171703512    1.267776658983    0.000000000000
