13

 C   -3.814002620116   -1.405043301410    0.000000000000
 H   -4.909520620116   -1.405043301410    0.000000000000
 C   -3.082535620116   -0.195061301410    0.000000000000
 H   -3.620418620116    0.763557698590    0.000000000000
 C   -3.082535620116   -2.615026301410    0.000000000000
 H   -3.620417620116   -3.573645301410    0.000000000000
 C   -1.677365620116   -0.189946301410    0.000000000000
 H   -1.130735620116    0.762211698590    0.000000000000
 C   -1.677365620116   -2.620140301410    0.000000000000
 H   -1.130735620116   -3.572297301410    0.000000000000
 C   -0.882328620116   -1.405043301410    0.000000000000
 O    0.404018379884   -1.405043301410    0.000000000000
RB    2.104018379884    1.539443071457    0.000000000000
