13

 C   -3.957155943745   -1.652992131207    0.000000000000
 H   -5.052673943745   -1.652992131207    0.000000000000
 C   -3.225688943745   -0.443010131207    0.000000000000
 H   -3.763571943745    0.515608868793    0.000000000000
 C   -3.225688943745   -2.862975131207    0.000000000000
 H   -3.763570943745   -3.821594131207    0.000000000000
 C   -1.820518943745   -0.437895131207    0.000000000000
 H   -1.273888943745    0.514262868793    0.000000000000
 C   -1.820518943745   -2.868089131207    0.000000000000
 H   -1.273888943745   -3.820246131207    0.000000000000
 C   -1.025481943745   -1.652992131207    0.000000000000
 O    0.260865056255   -1.652992131207    0.000000000000
RB    2.260865056255    1.811109483931    0.000000000000
