13

 C   -3.981014831016   -1.694316936173    0.000000000000
 H   -5.076532831016   -1.694316936173    0.000000000000
 C   -3.249547831016   -0.484334936173    0.000000000000
 H   -3.787430831016    0.474284063827    0.000000000000
 C   -3.249547831016   -2.904299936173    0.000000000000
 H   -3.787429831016   -3.862918936173    0.000000000000
 C   -1.844377831016   -0.479219936173    0.000000000000
 H   -1.297747831016    0.472938063827    0.000000000000
 C   -1.844377831016   -2.909413936173    0.000000000000
 H   -1.297747831016   -3.861570936173    0.000000000000
 C   -1.049340831016   -1.694316936173    0.000000000000
 O    0.237006168984   -1.694316936173    0.000000000000
RB    2.287006168984    1.856387219344    0.000000000000
