13

 C   -4.004873718287   -1.735641741139    0.000000000000
 H   -5.100391718287   -1.735641741139    0.000000000000
 C   -3.273406718287   -0.525659741139    0.000000000000
 H   -3.811289718287    0.432959258861    0.000000000000
 C   -3.273406718287   -2.945624741139    0.000000000000
 H   -3.811288718287   -3.904243741139    0.000000000000
 C   -1.868236718287   -0.520544741139    0.000000000000
 H   -1.321606718287    0.431613258861    0.000000000000
 C   -1.868236718287   -2.950738741139    0.000000000000
 H   -1.321606718287   -3.902895741139    0.000000000000
 C   -1.073199718287   -1.735641741139    0.000000000000
 O    0.213147281713   -1.735641741139    0.000000000000
RB    2.313147281713    1.901664954756    0.000000000000
