13

 C   -4.028732605559   -1.776966546105    0.000000000000
 H   -5.124250605559   -1.776966546105    0.000000000000
 C   -3.297265605559   -0.566984546105    0.000000000000
 H   -3.835148605559    0.391634453895    0.000000000000
 C   -3.297265605559   -2.986949546105    0.000000000000
 H   -3.835147605559   -3.945568546105    0.000000000000
 C   -1.892095605559   -0.561869546105    0.000000000000
 H   -1.345465605559    0.390288453895    0.000000000000
 C   -1.892095605559   -2.992063546105    0.000000000000
 H   -1.345465605559   -3.944220546105    0.000000000000
 C   -1.097058605559   -1.776966546105    0.000000000000
 O    0.189288394441   -1.776966546105    0.000000000000
RB    2.339288394441    1.946942690168    0.000000000000
