13

 C   -4.100309267373   -1.900940961003    0.000000000000
 H   -5.195827267373   -1.900940961003    0.000000000000
 C   -3.368842267373   -0.690958961003    0.000000000000
 H   -3.906725267373    0.267660038997    0.000000000000
 C   -3.368842267373   -3.110923961003    0.000000000000
 H   -3.906724267373   -4.069542961003    0.000000000000
 C   -1.963672267373   -0.685843961003    0.000000000000
 H   -1.417042267373    0.266314038997    0.000000000000
 C   -1.963672267373   -3.116037961003    0.000000000000
 H   -1.417042267373   -4.068194961003    0.000000000000
 C   -1.168635267373   -1.900940961003    0.000000000000
 O    0.117711732627   -1.900940961003    0.000000000000
RB    2.417711732627    2.082775896405    0.000000000000
