13

 C   -4.171885929187   -2.024915375901    0.000000000000
 H   -5.267403929187   -2.024915375901    0.000000000000
 C   -3.440418929187   -0.814933375901    0.000000000000
 H   -3.978301929187    0.143685624099    0.000000000000
 C   -3.440418929187   -3.234898375901    0.000000000000
 H   -3.978300929187   -4.193517375901    0.000000000000
 C   -2.035248929187   -0.809818375901    0.000000000000
 H   -1.488618929187    0.142339624099    0.000000000000
 C   -2.035248929187   -3.240012375901    0.000000000000
 H   -1.488618929187   -4.192169375901    0.000000000000
 C   -1.240211929187   -2.024915375901    0.000000000000
 O    0.046135070813   -2.024915375901    0.000000000000
RB    2.496135070813    2.218609102643    0.000000000000
