13

 C   -4.195744816458   -2.066240180867    0.000000000000
 H   -5.291262816458   -2.066240180867    0.000000000000
 C   -3.464277816458   -0.856258180867    0.000000000000
 H   -4.002160816458    0.102360819133    0.000000000000
 C   -3.464277816458   -3.276223180867    0.000000000000
 H   -4.002159816458   -4.234842180867    0.000000000000
 C   -2.059107816458   -0.851143180867    0.000000000000
 H   -1.512477816458    0.101014819133    0.000000000000
 C   -2.059107816458   -3.281337180867    0.000000000000
 H   -1.512477816458   -4.233494180867    0.000000000000
 C   -1.264070816458   -2.066240180867    0.000000000000
 O    0.022276183542   -2.066240180867    0.000000000000
RB    2.522276183542    2.263886838055    0.000000000000
