13

 C   -4.267321478272   -2.190214595765    0.000000000000
 H   -5.362839478272   -2.190214595765    0.000000000000
 C   -3.535854478272   -0.980232595765    0.000000000000
 H   -4.073737478272   -0.021613595765    0.000000000000
 C   -3.535854478272   -3.400197595765    0.000000000000
 H   -4.073736478272   -4.358816595765    0.000000000000
 C   -2.130684478272   -0.975117595765    0.000000000000
 H   -1.584054478272   -0.022959595765    0.000000000000
 C   -2.130684478272   -3.405311595765    0.000000000000
 H   -1.584054478272   -4.357468595765    0.000000000000
 C   -1.335647478272   -2.190214595765    0.000000000000
 O   -0.049300478272   -2.190214595765    0.000000000000
RB    2.600699521728    2.399720044292    0.000000000000
