13

 C   -4.291180365544   -2.231539400731    0.000000000000
 H   -5.386698365544   -2.231539400731    0.000000000000
 C   -3.559713365544   -1.021557400731    0.000000000000
 H   -4.097596365544   -0.062938400731    0.000000000000
 C   -3.559713365544   -3.441522400731    0.000000000000
 H   -4.097595365544   -4.400141400731    0.000000000000
 C   -2.154543365544   -1.016442400731    0.000000000000
 H   -1.607913365544   -0.064284400731    0.000000000000
 C   -2.154543365544   -3.446636400731    0.000000000000
 H   -1.607913365544   -4.398793400731    0.000000000000
 C   -1.359506365544   -2.231539400731    0.000000000000
 O   -0.073159365544   -2.231539400731    0.000000000000
RB    2.626840634456    2.444997779704    0.000000000000
