13

 C   -4.338898140086   -2.314189010664    0.000000000000
 H   -5.434416140086   -2.314189010664    0.000000000000
 C   -3.607431140086   -1.104207010664    0.000000000000
 H   -4.145314140086   -0.145588010664    0.000000000000
 C   -3.607431140086   -3.524172010664    0.000000000000
 H   -4.145313140086   -4.482791010664    0.000000000000
 C   -2.202261140086   -1.099092010664    0.000000000000
 H   -1.655631140086   -0.146934010664    0.000000000000
 C   -2.202261140086   -3.529286010664    0.000000000000
 H   -1.655631140086   -4.481443010664    0.000000000000
 C   -1.407224140086   -2.314189010664    0.000000000000
 O   -0.120877140086   -2.314189010664    0.000000000000
RB    2.679122859914    2.535553250529    0.000000000000
