13

 C   -4.362757027358   -2.355513815630    0.000000000000
 H   -5.458275027358   -2.355513815630    0.000000000000
 C   -3.631290027358   -1.145531815630    0.000000000000
 H   -4.169173027358   -0.186912815630    0.000000000000
 C   -3.631290027358   -3.565496815630    0.000000000000
 H   -4.169172027358   -4.524115815630    0.000000000000
 C   -2.226120027358   -1.140416815630    0.000000000000
 H   -1.679490027358   -0.188258815630    0.000000000000
 C   -2.226120027358   -3.570610815630    0.000000000000
 H   -1.679490027358   -4.522767815630    0.000000000000
 C   -1.431083027358   -2.355513815630    0.000000000000
 O   -0.144736027358   -2.355513815630    0.000000000000
RB    2.705263972642    2.580830985942    0.000000000000
