13

 C   -4.386615914629   -2.396838620596    0.000000000000
 H   -5.482133914629   -2.396838620596    0.000000000000
 C   -3.655148914629   -1.186856620596    0.000000000000
 H   -4.193031914629   -0.228237620596    0.000000000000
 C   -3.655148914629   -3.606821620596    0.000000000000
 H   -4.193030914629   -4.565440620596    0.000000000000
 C   -2.249978914629   -1.181741620596    0.000000000000
 H   -1.703348914629   -0.229583620596    0.000000000000
 C   -2.249978914629   -3.611935620596    0.000000000000
 H   -1.703348914629   -4.564092620596    0.000000000000
 C   -1.454941914629   -2.396838620596    0.000000000000
 O   -0.168594914629   -2.396838620596    0.000000000000
RB    2.731405085371    2.626108721354    0.000000000000
