13

 C   -4.482051463715   -2.562137840460    0.000000000000
 H   -5.577569463715   -2.562137840460    0.000000000000
 C   -3.750584463715   -1.352155840460    0.000000000000
 H   -4.288467463715   -0.393536840460    0.000000000000
 C   -3.750584463715   -3.772120840460    0.000000000000
 H   -4.288466463715   -4.730739840460    0.000000000000
 C   -2.345414463715   -1.347040840460    0.000000000000
 H   -1.798784463715   -0.394882840460    0.000000000000
 C   -2.345414463715   -3.777234840460    0.000000000000
 H   -1.798784463715   -4.729391840460    0.000000000000
 C   -1.550377463715   -2.562137840460    0.000000000000
 O   -0.264030463715   -2.562137840460    0.000000000000
RB    2.835969536285    2.807219663003    0.000000000000
