13

 C   -4.529769238257   -2.644787450392    0.000000000000
 H   -5.625287238257   -2.644787450392    0.000000000000
 C   -3.798302238257   -1.434805450392    0.000000000000
 H   -4.336185238257   -0.476186450392    0.000000000000
 C   -3.798302238257   -3.854770450392    0.000000000000
 H   -4.336184238257   -4.813389450392    0.000000000000
 C   -2.393132238257   -1.429690450392    0.000000000000
 H   -1.846502238257   -0.477532450392    0.000000000000
 C   -2.393132238257   -3.859884450392    0.000000000000
 H   -1.846502238257   -4.812041450392    0.000000000000
 C   -1.598095238257   -2.644787450392    0.000000000000
 O   -0.311748238257   -2.644787450392    0.000000000000
RB    2.888251761743    2.897775133828    0.000000000000
