13

 C   -4.577487012800   -2.727437060324    0.000000000000
 H   -5.673005012800   -2.727437060324    0.000000000000
 C   -3.846020012800   -1.517455060324    0.000000000000
 H   -4.383903012800   -0.558836060324    0.000000000000
 C   -3.846020012800   -3.937420060324    0.000000000000
 H   -4.383902012800   -4.896039060324    0.000000000000
 C   -2.440850012800   -1.512340060324    0.000000000000
 H   -1.894220012800   -0.560182060324    0.000000000000
 C   -2.440850012800   -3.942534060324    0.000000000000
 H   -1.894220012800   -4.894691060324    0.000000000000
 C   -1.645813012800   -2.727437060324    0.000000000000
 O   -0.359466012800   -2.727437060324    0.000000000000
RB    2.940533987200    2.988330604653    0.000000000000
