13

 C   -4.625204787343   -2.810086670256    0.000000000000
 H   -5.720722787343   -2.810086670256    0.000000000000
 C   -3.893737787343   -1.600104670256    0.000000000000
 H   -4.431620787343   -0.641485670256    0.000000000000
 C   -3.893737787343   -4.020069670256    0.000000000000
 H   -4.431619787343   -4.978688670256    0.000000000000
 C   -2.488567787343   -1.594989670256    0.000000000000
 H   -1.941937787343   -0.642831670256    0.000000000000
 C   -2.488567787343   -4.025183670256    0.000000000000
 H   -1.941937787343   -4.977340670256    0.000000000000
 C   -1.693530787343   -2.810086670256    0.000000000000
 O   -0.407183787343   -2.810086670256    0.000000000000
RB    2.992816212657    3.078886075478    0.000000000000
