13

 C   -4.649063674614   -2.851411475223    0.000000000000
 H   -5.744581674614   -2.851411475223    0.000000000000
 C   -3.917596674614   -1.641429475223    0.000000000000
 H   -4.455479674614   -0.682810475223    0.000000000000
 C   -3.917596674614   -4.061394475223    0.000000000000
 H   -4.455478674614   -5.020013475223    0.000000000000
 C   -2.512426674614   -1.636314475223    0.000000000000
 H   -1.965796674614   -0.684156475223    0.000000000000
 C   -2.512426674614   -4.066508475223    0.000000000000
 H   -1.965796674614   -5.018665475223    0.000000000000
 C   -1.717389674614   -2.851411475223    0.000000000000
 O   -0.431042674614   -2.851411475223    0.000000000000
RB    3.018957325386    3.124163810890    0.000000000000
