13

 C   -4.768358110971   -3.058035500053    0.000000000000
 H   -5.863876110971   -3.058035500053    0.000000000000
 C   -4.036891110971   -1.848053500053    0.000000000000
 H   -4.574774110971   -0.889434500053    0.000000000000
 C   -4.036891110971   -4.268018500053    0.000000000000
 H   -4.574773110971   -5.226637500053    0.000000000000
 C   -2.631721110971   -1.842938500053    0.000000000000
 H   -2.085091110971   -0.890780500053    0.000000000000
 C   -2.631721110971   -4.273132500053    0.000000000000
 H   -2.085091110971   -5.225289500053    0.000000000000
 C   -1.836684110971   -3.058035500053    0.000000000000
 O   -0.550337110971   -3.058035500053    0.000000000000
RB    3.149662889029    3.350552487952    0.000000000000
