13

 C   -4.935370321871   -3.347309134815    0.000000000000
 H   -6.030888321871   -3.347309134815    0.000000000000
 C   -4.203903321871   -2.137327134815    0.000000000000
 H   -4.741786321871   -1.178708134815    0.000000000000
 C   -4.203903321871   -4.557292134815    0.000000000000
 H   -4.741785321871   -5.515911134815    0.000000000000
 C   -2.798733321871   -2.132212134815    0.000000000000
 H   -2.252103321871   -1.180054134815    0.000000000000
 C   -2.798733321871   -4.562406134815    0.000000000000
 H   -2.252103321871   -5.514563134815    0.000000000000
 C   -2.003696321871   -3.347309134815    0.000000000000
 O   -0.717349321871   -3.347309134815    0.000000000000
RB    3.332650678129    3.667496635839    0.000000000000
