13

 C   -5.030805870956   -3.512608354680    0.000000000000
 H   -6.126323870956   -3.512608354680    0.000000000000
 C   -4.299338870956   -2.302626354680    0.000000000000
 H   -4.837221870956   -1.344007354680    0.000000000000
 C   -4.299338870956   -4.722591354680    0.000000000000
 H   -4.837220870956   -5.681210354680    0.000000000000
 C   -2.894168870956   -2.297511354680    0.000000000000
 H   -2.347538870956   -1.345353354680    0.000000000000
 C   -2.894168870956   -4.727705354680    0.000000000000
 H   -2.347538870956   -5.679862354680    0.000000000000
 C   -2.099131870956   -3.512608354680    0.000000000000
 O   -0.812784870956   -3.512608354680    0.000000000000
RB    3.437215129044    3.848607577488    0.000000000000
