13

 C   -5.054664758228   -3.553933159646    0.000000000000
 H   -6.150182758228   -3.553933159646    0.000000000000
 C   -4.323197758228   -2.343951159646    0.000000000000
 H   -4.861080758228   -1.385332159646    0.000000000000
 C   -4.323197758228   -4.763916159646    0.000000000000
 H   -4.861079758228   -5.722535159646    0.000000000000
 C   -2.918027758228   -2.338836159646    0.000000000000
 H   -2.371397758228   -1.386678159646    0.000000000000
 C   -2.918027758228   -4.769030159646    0.000000000000
 H   -2.371397758228   -5.721187159646    0.000000000000
 C   -2.122990758228   -3.553933159646    0.000000000000
 O   -0.836643758228   -3.553933159646    0.000000000000
RB    3.463356241772    3.893885312900    0.000000000000
