13

 C   -5.126241420042   -3.677907574544    0.000000000000
 H   -6.221759420042   -3.677907574544    0.000000000000
 C   -4.394774420042   -2.467925574544    0.000000000000
 H   -4.932657420042   -1.509306574544    0.000000000000
 C   -4.394774420042   -4.887890574544    0.000000000000
 H   -4.932656420042   -5.846509574544    0.000000000000
 C   -2.989604420042   -2.462810574544    0.000000000000
 H   -2.442974420042   -1.510652574544    0.000000000000
 C   -2.989604420042   -4.893004574544    0.000000000000
 H   -2.442974420042   -5.845161574544    0.000000000000
 C   -2.194567420042   -3.677907574544    0.000000000000
 O   -0.908220420042   -3.677907574544    0.000000000000
RB    3.541779579958    4.029718519138    0.000000000000
