13

 C   -5.173959194584   -3.760557184476    0.000000000000
 H   -6.269477194584   -3.760557184476    0.000000000000
 C   -4.442492194584   -2.550575184476    0.000000000000
 H   -4.980375194584   -1.591956184476    0.000000000000
 C   -4.442492194584   -4.970540184476    0.000000000000
 H   -4.980374194584   -5.929159184476    0.000000000000
 C   -3.037322194584   -2.545460184476    0.000000000000
 H   -2.490692194584   -1.593302184476    0.000000000000
 C   -3.037322194584   -4.975654184476    0.000000000000
 H   -2.490692194584   -5.927811184476    0.000000000000
 C   -2.242285194584   -3.760557184476    0.000000000000
 O   -0.955938194584   -3.760557184476    0.000000000000
RB    3.594061805416    4.120273989962    0.000000000000
