13

 C   -5.317112518213   -4.008506014272    0.000000000000
 H   -6.412630518213   -4.008506014272    0.000000000000
 C   -4.585645518213   -2.798524014272    0.000000000000
 H   -5.123528518213   -1.839905014272    0.000000000000
 C   -4.585645518213   -5.218489014272    0.000000000000
 H   -5.123527518213   -6.177108014272    0.000000000000
 C   -3.180475518213   -2.793409014272    0.000000000000
 H   -2.633845518213   -1.841251014272    0.000000000000
 C   -3.180475518213   -5.223603014272    0.000000000000
 H   -2.633845518213   -6.175760014272    0.000000000000
 C   -2.385438518213   -4.008506014272    0.000000000000
 O   -1.099091518213   -4.008506014272    0.000000000000
RB    3.750908481787    4.391940402437    0.000000000000
