12

 C   -0.614176386484    1.821237391516    0.000000000000
 C    0.498165613516    0.801759391516    0.000000000000
 O   -0.006165386484   -0.464693608484    0.000000000000
 C    1.008300613516   -1.498432608484    0.000000000000
 O    1.695805613516    1.046252391516    0.000000000000
 H   -0.181606386484    2.828247391516    0.000000000000
 H   -1.246513386484    1.678665391516    0.888615000000
 H   -1.246513386484    1.678665391516   -0.888615000000
 H    0.454203613516   -2.443556608484    0.000000000000
 H    1.638095613516   -1.412133608484    0.896190000000
 H    1.638095613516   -1.412133608484   -0.896190000000
 K   -0.995725402036   -0.608815000447    0.000000000000
