12

 C   -0.409450226151    1.851054096653    0.000000000000
 C    0.702891773849    0.831576096653    0.000000000000
 O    0.198560773849   -0.434876903347    0.000000000000
 C    1.213026773849   -1.468615903347    0.000000000000
 O    1.900531773849    1.076069096653    0.000000000000
 H    0.023119773849    2.858064096653    0.000000000000
 H   -1.041787226151    1.708482096653    0.888615000000
 H   -1.041787226151    1.708482096653   -0.888615000000
 H    0.658929773849   -2.413739903347    0.000000000000
 H    1.842821773849   -1.382316903347    0.896190000000
 H    1.842821773849   -1.382316903347   -0.896190000000
 K   -1.384735251034   -0.665471130488    0.000000000000
