12

 C    2.456716018515    2.268487968562    0.000000000000
 C    3.569058018515    1.249009968562    0.000000000000
 O    3.064727018515   -0.017443031438    0.000000000000
 C    4.079193018515   -1.051182031438    0.000000000000
 O    4.766698018515    1.493502968562    0.000000000000
 H    2.889286018515    3.275497968562    0.000000000000
 H    1.824379018515    2.125915968562    0.888615000000
 H    1.824379018515    2.125915968562   -0.888615000000
 H    3.525096018515   -1.996306031438    0.000000000000
 H    4.708988018515   -0.964883031438    0.896190000000
 H    4.708988018515   -0.964883031438   -0.896190000000
 K   -6.830873137002   -1.458656951067    0.000000000000
