12

 C   -0.272966119262    1.870931900077    0.000000000000
 C    0.839375880738    0.851453900077    0.000000000000
 O    0.335044880738   -0.414999099923    0.000000000000
 C    1.349510880738   -1.448738099923    0.000000000000
 O    2.037015880738    1.095946900077    0.000000000000
 H    0.159603880738    2.877941900077    0.000000000000
 H   -0.905303119262    1.728359900077    0.888615000000
 H   -0.905303119262    1.728359900077   -0.888615000000
 H    0.795413880738   -2.393862099923    0.000000000000
 H    1.979305880738   -1.362439099923    0.896190000000
 H    1.979305880738   -1.362439099923   -0.896190000000
 K   -1.644075150366   -0.703241883849    0.000000000000
