12

 C   -0.238845092540    1.875901350933    0.000000000000
 C    0.873496907460    0.856423350933    0.000000000000
 O    0.369165907460   -0.410029649067    0.000000000000
 C    1.383631907460   -1.443768649067    0.000000000000
 O    2.071136907460    1.100916350933    0.000000000000
 H    0.193724907460    2.882911350933    0.000000000000
 H   -0.871182092540    1.733329350933    0.888615000000
 H   -0.871182092540    1.733329350933   -0.888615000000
 H    0.829534907460   -2.388892649067    0.000000000000
 H    2.013426907460   -1.357469649067    0.896190000000
 H    2.013426907460   -1.357469649067   -0.896190000000
 K   -1.708910125199   -0.712684572189    0.000000000000
