12

 C    0.000002094516    1.910687506926    0.000000000000
 C    1.112344094516    0.891209506926    0.000000000000
 O    0.608013094516   -0.375243493074    0.000000000000
 C    1.622479094516   -1.408982493074    0.000000000000
 O    2.309984094516    1.135702506926    0.000000000000
 H    0.432572094516    2.917697506926    0.000000000000
 H   -0.632334905484    1.768115506926    0.888615000000
 H   -0.632334905484    1.768115506926   -0.888615000000
 H    1.068382094516   -2.354106493074    0.000000000000
 H    2.252274094516   -1.322683493074    0.896190000000
 H    2.252274094516   -1.322683493074   -0.896190000000
 K   -2.162754949029   -0.778783390571    0.000000000000
