12

 C    0.272970308293    1.950443113774    0.000000000000
 C    1.385312308293    0.930965113774    0.000000000000
 O    0.880981308293   -0.335487886226    0.000000000000
 C    1.895447308293   -1.369226886226    0.000000000000
 O    2.582952308293    1.175458113774    0.000000000000
 H    0.705540308293    2.957453113774    0.000000000000
 H   -0.359366691707    1.807871113774    0.888615000000
 H   -0.359366691707    1.807871113774   -0.888615000000
 H    1.341350308293   -2.314350886226    0.000000000000
 H    2.525242308293   -1.282927886226    0.896190000000
 H    2.525242308293   -1.282927886226   -0.896190000000
 K   -2.681434747693   -0.854324897293    0.000000000000
