12

 C    0.341212361738    1.960382015486    0.000000000000
 C    1.453554361738    0.940904015486    0.000000000000
 O    0.949223361738   -0.325548984514    0.000000000000
 C    1.963689361738   -1.359287984514    0.000000000000
 O    2.651194361738    1.185397015486    0.000000000000
 H    0.773782361738    2.967392015486    0.000000000000
 H   -0.291124638262    1.817810015486    0.888615000000
 H   -0.291124638262    1.817810015486   -0.888615000000
 H    1.409592361738   -2.304411984514    0.000000000000
 H    2.593484361738   -1.272988984514    0.896190000000
 H    2.593484361738   -1.272988984514   -0.896190000000
 K   -2.811104697359   -0.873210273973    0.000000000000
