12

 C    0.375333388460    1.965351466342    0.000000000000
 C    1.487675388460    0.945873466342    0.000000000000
 O    0.983344388460   -0.320579533658    0.000000000000
 C    1.997810388460   -1.354318533658    0.000000000000
 O    2.685315388460    1.190366466342    0.000000000000
 H    0.807903388460    2.972361466342    0.000000000000
 H   -0.257003611540    1.822779466342    0.888615000000
 H   -0.257003611540    1.822779466342   -0.888615000000
 H    1.443713388460   -2.299442533658    0.000000000000
 H    2.627605388460   -1.268019533658    0.896190000000
 H    2.627605388460   -1.268019533658   -0.896190000000
 K   -2.875939672192   -0.882652962313    0.000000000000
