12

 C    0.443575441904    1.975290368054    0.000000000000
 C    1.555917441904    0.955812368054    0.000000000000
 O    1.051586441904   -0.310640631946    0.000000000000
 C    2.066052441904   -1.344379631946    0.000000000000
 O    2.753557441904    1.200305368054    0.000000000000
 H    0.876145441904    2.982300368054    0.000000000000
 H   -0.188761558096    1.832718368054    0.888615000000
 H   -0.188761558096    1.832718368054   -0.888615000000
 H    1.511955441904   -2.289503631946    0.000000000000
 H    2.695847441904   -1.258080631946    0.896190000000
 H    2.695847441904   -1.258080631946   -0.896190000000
 K   -3.005609621858   -0.901538338994    0.000000000000
