12

 C    0.477696468627    1.980259818910    0.000000000000
 C    1.590038468627    0.960781818910    0.000000000000
 O    1.085707468627   -0.305671181090    0.000000000000
 C    2.100173468627   -1.339410181090    0.000000000000
 O    2.787678468627    1.205274818910    0.000000000000
 H    0.910266468627    2.987269818910    0.000000000000
 H   -0.154640531373    1.837687818910    0.888615000000
 H   -0.154640531373    1.837687818910   -0.888615000000
 H    1.546076468627   -2.284534181090    0.000000000000
 H    2.729968468627   -1.253111181090    0.896190000000
 H    2.729968468627   -1.253111181090   -0.896190000000
 K   -3.070444596690   -0.910981027334    0.000000000000
