12

 C    0.580059548793    1.995168171479    0.000000000000
 C    1.692401548793    0.975690171479    0.000000000000
 O    1.188070548793   -0.290762828521    0.000000000000
 C    2.202536548793   -1.324501828521    0.000000000000
 O    2.890041548793    1.220183171479    0.000000000000
 H    1.012629548793    3.002178171479    0.000000000000
 H   -0.052277451207    1.852596171479    0.888615000000
 H   -0.052277451207    1.852596171479   -0.888615000000
 H    1.648439548793   -2.269625828521    0.000000000000
 H    2.832331548793   -1.238202828521    0.896190000000
 H    2.832331548793   -1.238202828521   -0.896190000000
 K   -3.264949521189   -0.939309092355    0.000000000000
