12

 C    0.614180575515    2.000137622335    0.000000000000
 C    1.726522575515    0.980659622335    0.000000000000
 O    1.222191575515   -0.285793377665    0.000000000000
 C    2.236657575515   -1.319532377665    0.000000000000
 O    2.924162575515    1.225152622335    0.000000000000
 H    1.046750575515    3.007147622335    0.000000000000
 H   -0.018156424485    1.857565622335    0.888615000000
 H   -0.018156424485    1.857565622335   -0.888615000000
 H    1.682560575515   -2.264656377665    0.000000000000
 H    2.866452575515   -1.233233377665    0.896190000000
 H    2.866452575515   -1.233233377665   -0.896190000000
 K   -3.329784496022   -0.948751780695    0.000000000000
