12

 C    0.682422628960    2.010076524047    0.000000000000
 C    1.794764628960    0.990598524047    0.000000000000
 O    1.290433628960   -0.275854475953    0.000000000000
 C    2.304899628960   -1.309593475953    0.000000000000
 O    2.992404628960    1.235091524047    0.000000000000
 H    1.114992628960    3.017086524047    0.000000000000
 H    0.050085628960    1.867504524047    0.888615000000
 H    0.050085628960    1.867504524047   -0.888615000000
 H    1.750802628960   -2.254717475953    0.000000000000
 H    2.934694628960   -1.223294475953    0.896190000000
 H    2.934694628960   -1.223294475953   -0.896190000000
 K   -3.459454445688   -0.967637157375    0.000000000000
