12

 C    0.853027762571    2.034923778327    0.000000000000
 C    1.965369762571    1.015445778327    0.000000000000
 O    1.461038762571   -0.251007221673    0.000000000000
 C    2.475504762571   -1.284746221673    0.000000000000
 O    3.163009762571    1.259938778327    0.000000000000
 H    1.285597762571    3.041933778327    0.000000000000
 H    0.220690762571    1.892351778327    0.888615000000
 H    0.220690762571    1.892351778327   -0.888615000000
 H    1.921407762571   -2.229870221673    0.000000000000
 H    3.105299762571   -1.198447221673    0.896190000000
 H    3.105299762571   -1.198447221673   -0.896190000000
 K   -3.783629319853   -1.014850599076    0.000000000000
