12

 C    0.887148789293    2.039893229183    0.000000000000
 C    1.999490789293    1.020415229183    0.000000000000
 O    1.495159789293   -0.246037770817    0.000000000000
 C    2.509625789293   -1.279776770817    0.000000000000
 O    3.197130789293    1.264908229183    0.000000000000
 H    1.319718789293    3.046903229183    0.000000000000
 H    0.254811789293    1.897321229183    0.888615000000
 H    0.254811789293    1.897321229183   -0.888615000000
 H    1.955528789293   -2.224900770817    0.000000000000
 H    3.139420789293   -1.193477770817    0.896190000000
 H    3.139420789293   -1.193477770817   -0.896190000000
 K   -3.848464294686   -1.024293287417    0.000000000000
