12

 C    1.023632896182    2.059771032608    0.000000000000
 C    2.135974896182    1.040293032608    0.000000000000
 O    1.631643896182   -0.226159967392    0.000000000000
 C    2.646109896182   -1.259898967392    0.000000000000
 O    3.333614896182    1.284786032608    0.000000000000
 H    1.456202896182    3.066781032608    0.000000000000
 H    0.391295896182    1.917199032608    0.888615000000
 H    0.391295896182    1.917199032608   -0.888615000000
 H    2.092012896182   -2.205022967392    0.000000000000
 H    3.275904896182   -1.173599967392    0.896190000000
 H    3.275904896182   -1.173599967392   -0.896190000000
 K   -4.107804194018   -1.062064040778    0.000000000000
