12

 C    1.091874949627    2.069709934320    0.000000000000
 C    2.204216949627    1.050231934320    0.000000000000
 O    1.699885949627   -0.216221065680    0.000000000000
 C    2.714351949627   -1.249960065680    0.000000000000
 O    3.401856949627    1.294724934320    0.000000000000
 H    1.524444949627    3.076719934320    0.000000000000
 H    0.459537949627    1.927137934320    0.888615000000
 H    0.459537949627    1.927137934320   -0.888615000000
 H    2.160254949627   -2.195084065680    0.000000000000
 H    3.344146949627   -1.163661065680    0.896190000000
 H    3.344146949627   -1.163661065680   -0.896190000000
 K   -4.237474143684   -1.080949417458    0.000000000000
