12

 C    1.125995976349    2.074679385176    0.000000000000
 C    2.238337976349    1.055201385176    0.000000000000
 O    1.734006976349   -0.211251614824    0.000000000000
 C    2.748472976349   -1.244990614824    0.000000000000
 O    3.435977976349    1.299694385176    0.000000000000
 H    1.558565976349    3.081689385176    0.000000000000
 H    0.493658976349    1.932107385176    0.888615000000
 H    0.493658976349    1.932107385176   -0.888615000000
 H    2.194375976349   -2.190114614824    0.000000000000
 H    3.378267976349   -1.158691614824    0.896190000000
 H    3.378267976349   -1.158691614824   -0.896190000000
 K   -4.302309118517   -1.090392105798    0.000000000000
