12

 C    1.160117003071    2.079648836032    0.000000000000
 C    2.272459003071    1.060170836032    0.000000000000
 O    1.768128003071   -0.206282163968    0.000000000000
 C    2.782594003071   -1.240021163968    0.000000000000
 O    3.470099003071    1.304663836032    0.000000000000
 H    1.592687003071    3.086658836032    0.000000000000
 H    0.527780003071    1.937076836032    0.888615000000
 H    0.527780003071    1.937076836032   -0.888615000000
 H    2.228497003071   -2.185145163968    0.000000000000
 H    3.412389003071   -1.153722163968    0.896190000000
 H    3.412389003071   -1.153722163968   -0.896190000000
 K   -4.367144093349   -1.099834794139    0.000000000000
