12

 C    1.228359056515    2.089587737744    0.000000000000
 C    2.340701056515    1.070109737744    0.000000000000
 O    1.836370056515   -0.196343262256    0.000000000000
 C    2.850836056515   -1.230082262256    0.000000000000
 O    3.538341056515    1.314602737744    0.000000000000
 H    1.660929056515    3.096597737744    0.000000000000
 H    0.596022056515    1.947015737744    0.888615000000
 H    0.596022056515    1.947015737744   -0.888615000000
 H    2.296739056515   -2.175206262256    0.000000000000
 H    3.480631056515   -1.143783262256    0.896190000000
 H    3.480631056515   -1.143783262256   -0.896190000000
 K   -4.496814043015   -1.118720170819    0.000000000000
