12

 C    1.364843163404    2.109465541168    0.000000000000
 C    2.477185163404    1.089987541168    0.000000000000
 O    1.972854163404   -0.176465458832    0.000000000000
 C    2.987320163404   -1.210204458832    0.000000000000
 O    3.674825163404    1.334480541168    0.000000000000
 H    1.797413163404    3.116475541168    0.000000000000
 H    0.732506163404    1.966893541168    0.888615000000
 H    0.732506163404    1.966893541168   -0.888615000000
 H    2.433223163404   -2.155328458832    0.000000000000
 H    3.617115163404   -1.123905458832    0.896190000000
 H    3.617115163404   -1.123905458832   -0.896190000000
 K   -4.756153942347   -1.156490924180    0.000000000000
