12

 C    1.398964190127    2.114434992024    0.000000000000
 C    2.511306190127    1.094956992024    0.000000000000
 O    2.006975190127   -0.171496007976    0.000000000000
 C    3.021441190127   -1.205235007976    0.000000000000
 O    3.708946190127    1.339449992024    0.000000000000
 H    1.831534190127    3.121444992024    0.000000000000
 H    0.766627190127    1.971862992024    0.888615000000
 H    0.766627190127    1.971862992024   -0.888615000000
 H    2.467344190127   -2.150359007976    0.000000000000
 H    3.651236190127   -1.118936007976    0.896190000000
 H    3.651236190127   -1.118936007976   -0.896190000000
 K   -4.820988917180   -1.165933612520    0.000000000000
