12

 C    1.501327270293    2.129343344592    0.000000000000
 C    2.613669270293    1.109865344592    0.000000000000
 O    2.109338270293   -0.156587655408    0.000000000000
 C    3.123804270293   -1.190326655408    0.000000000000
 O    3.811309270293    1.354358344592    0.000000000000
 H    1.933897270293    3.136353344592    0.000000000000
 H    0.868990270293    1.986771344592    0.888615000000
 H    0.868990270293    1.986771344592   -0.888615000000
 H    2.569707270293   -2.135450655408    0.000000000000
 H    3.753599270293   -1.104027655408    0.896190000000
 H    3.753599270293   -1.104027655408   -0.896190000000
 K   -5.015493841679   -1.194261677541    0.000000000000
