12

 C    1.637811377182    2.149221148017    0.000000000000
 C    2.750153377182    1.129743148017    0.000000000000
 O    2.245822377182   -0.136709851983    0.000000000000
 C    3.260288377182   -1.170448851983    0.000000000000
 O    3.947793377182    1.374236148017    0.000000000000
 H    2.070381377182    3.156231148017    0.000000000000
 H    1.005474377182    2.006649148017    0.888615000000
 H    1.005474377182    2.006649148017   -0.888615000000
 H    2.706191377182   -2.115572851983    0.000000000000
 H    3.890083377182   -1.084149851983    0.896190000000
 H    3.890083377182   -1.084149851983   -0.896190000000
 K   -5.274833741011   -1.232032430902    0.000000000000
