12

 C    1.706053430627    2.159160049729    0.000000000000
 C    2.818395430627    1.139682049729    0.000000000000
 O    2.314064430627   -0.126770950271    0.000000000000
 C    3.328530430627   -1.160509950271    0.000000000000
 O    4.016035430627    1.384175049729    0.000000000000
 H    2.138623430627    3.166170049729    0.000000000000
 H    1.073716430627    2.016588049729    0.888615000000
 H    1.073716430627    2.016588049729   -0.888615000000
 H    2.774433430627   -2.105633950271    0.000000000000
 H    3.958325430627   -1.074210950271    0.896190000000
 H    3.958325430627   -1.074210950271   -0.896190000000
 K   -5.404503690677   -1.250917807582    0.000000000000
