12

 C    1.740174457349    2.164129500585    0.000000000000
 C    2.852516457349    1.144651500585    0.000000000000
 O    2.348185457349   -0.121801499415    0.000000000000
 C    3.362651457349   -1.155540499415    0.000000000000
 O    4.050156457349    1.389144500585    0.000000000000
 H    2.172744457349    3.171139500585    0.000000000000
 H    1.107837457349    2.021557500585    0.888615000000
 H    1.107837457349    2.021557500585   -0.888615000000
 H    2.808554457349   -2.100664499415    0.000000000000
 H    3.992446457349   -1.069241499415    0.896190000000
 H    3.992446457349   -1.069241499415   -0.896190000000
 K   -5.469338665510   -1.260360495922    0.000000000000
