12

 C    2.081384724571    2.213824009146    0.000000000000
 C    3.193726724571    1.194346009146    0.000000000000
 O    2.689395724571   -0.072106990854    0.000000000000
 C    3.703861724571   -1.105845990854    0.000000000000
 O    4.391366724571    1.438839009146    0.000000000000
 H    2.513954724571    3.220834009146    0.000000000000
 H    1.449047724571    2.071252009146    0.888615000000
 H    1.449047724571    2.071252009146   -0.888615000000
 H    3.149764724571   -2.050969990854    0.000000000000
 H    4.333656724571   -1.019546990854    0.896190000000
 H    4.333656724571   -1.019546990854   -0.896190000000
 K   -6.117688413839   -1.354787379325    0.000000000000
