12

 C    2.251989858182    2.238671263426    0.000000000000
 C    3.364331858182    1.219193263426    0.000000000000
 O    2.860000858182   -0.047259736574    0.000000000000
 C    3.874466858182   -1.080998736574    0.000000000000
 O    4.561971858182    1.463686263426    0.000000000000
 H    2.684559858182    3.245681263426    0.000000000000
 H    1.619652858182    2.096099263426    0.888615000000
 H    1.619652858182    2.096099263426   -0.888615000000
 H    3.320369858182   -2.026122736574    0.000000000000
 H    4.504261858182   -0.994699736574    0.896190000000
 H    4.504261858182   -0.994699736574   -0.896190000000
 K   -6.441863288004   -1.402000821026    0.000000000000
