12

 C    2.286110884904    2.243640714282    0.000000000000
 C    3.398452884904    1.224162714282    0.000000000000
 O    2.894121884904   -0.042290285718    0.000000000000
 C    3.908587884904   -1.076029285718    0.000000000000
 O    4.596092884904    1.468655714282    0.000000000000
 H    2.718680884904    3.250650714282    0.000000000000
 H    1.653773884904    2.101068714282    0.888615000000
 H    1.653773884904    2.101068714282   -0.888615000000
 H    3.354490884904   -2.021153285718    0.000000000000
 H    4.538382884904   -0.989730285718    0.896190000000
 H    4.538382884904   -0.989730285718   -0.896190000000
 K   -6.506698262837   -1.411443509366    0.000000000000
