12

 C    2.388473965071    2.258549066850    0.000000000000
 C    3.500815965071    1.239071066850    0.000000000000
 O    2.996484965071   -0.027381933150    0.000000000000
 C    4.010950965071   -1.061120933150    0.000000000000
 O    4.698455965071    1.483564066850    0.000000000000
 H    2.821043965071    3.265559066850    0.000000000000
 H    1.756136965071    2.115977066850    0.888615000000
 H    1.756136965071    2.115977066850   -0.888615000000
 H    3.456853965071   -2.006244933150    0.000000000000
 H    4.640745965071   -0.974821933150    0.896190000000
 H    4.640745965071   -0.974821933150   -0.896190000000
 K   -6.701203187336   -1.439771574387    0.000000000000
