8

 C    0.284181585102   -1.556055384741    0.000000000000
 H    1.319681585102   -1.932143384741    0.000000000000
 H   -0.249018414898   -1.936758384741    0.888337000000
 H   -0.249018414898   -1.936758384741   -0.888337000000
 C    0.242415585102    0.000028615259    0.000000000000
 O   -0.924780414898    0.506251615259    0.000000000000
 O    1.366486585102    0.595446615259    0.000000000000
LI   -2.025696367203    0.983728385333    0.000000000000
