8

 C    0.293929819592   -1.560283278350    0.000000000000
 H    1.329429819592   -1.936371278350    0.000000000000
 H   -0.239270180408   -1.940986278350    0.888337000000
 H   -0.239270180408   -1.940986278350   -0.888337000000
 C    0.252163819592   -0.004199278350    0.000000000000
 O   -0.915032180408    0.502023721650    0.000000000000
 O    1.376234819592    0.591218721650    0.000000000000
LI   -2.107691128738    1.019290222564    0.000000000000
