8

 C    0.313426288573   -1.568739065567    0.000000000000
 H    1.348926288573   -1.944827065567    0.000000000000
 H   -0.219773711427   -1.949442065567    0.888337000000
 H   -0.219773711427   -1.949442065567   -0.888337000000
 C    0.271660288573   -0.012655065567    0.000000000000
 O   -0.895535711427    0.493567934433    0.000000000000
 O    1.395731288573    0.582762934433    0.000000000000
LI   -2.271680651808    1.090413897026    0.000000000000
