8

 C    0.342670992044   -1.581422746393    0.000000000000
 H    1.378170992044   -1.957510746393    0.000000000000
 H   -0.190529007956   -1.962125746393    0.888337000000
 H   -0.190529007956   -1.962125746393   -0.888337000000
 C    0.300904992044   -0.025338746393    0.000000000000
 O   -0.866291007956    0.480884253607    0.000000000000
 O    1.424975992044    0.570079253607    0.000000000000
LI   -2.517664936413    1.197099408719    0.000000000000
