8

 C    0.391412164495   -1.602562214436    0.000000000000
 H    1.426912164495   -1.978650214436    0.000000000000
 H   -0.141787835505   -1.983265214436    0.888337000000
 H   -0.141787835505   -1.983265214436   -0.888337000000
 C    0.349646164495   -0.046478214436    0.000000000000
 O   -0.817549835505    0.459744785564    0.000000000000
 O    1.473717164495    0.548939785564    0.000000000000
LI   -2.927638744089    1.374908594873    0.000000000000
