8

 C    0.401160398986   -1.606790108044    0.000000000000
 H    1.436660398986   -1.982878108044    0.000000000000
 H   -0.132039601014   -1.987493108044    0.888337000000
 H   -0.132039601014   -1.987493108044   -0.888337000000
 C    0.359394398986   -0.050706108044    0.000000000000
 O   -0.807801601014    0.455516891956    0.000000000000
 O    1.483465398986    0.544711891956    0.000000000000
LI   -3.009633505624    1.410470432104    0.000000000000
