8

 C    0.469398040418   -1.636385363305    0.000000000000
 H    1.504898040418   -2.012473363305    0.000000000000
 H   -0.063801959582   -2.017088363305    0.888337000000
 H   -0.063801959582   -2.017088363305   -0.888337000000
 C    0.427632040418   -0.080301363305    0.000000000000
 O   -0.739563959582    0.425921636695    0.000000000000
 O    1.551703040418    0.515116636695    0.000000000000
LI   -3.583596836370    1.659403292721    0.000000000000
