8

 C    0.488894509399   -1.644841150522    0.000000000000
 H    1.524394509399   -2.020929150522    0.000000000000
 H   -0.044305490601   -2.025544150522    0.888337000000
 H   -0.044305490601   -2.025544150522   -0.888337000000
 C    0.447128509399   -0.088757150522    0.000000000000
 O   -0.720067490601    0.417465849478    0.000000000000
 O    1.571199509399    0.506660849478    0.000000000000
LI   -3.747586359440    1.730526967182    0.000000000000
