8

 C    0.518139212869   -1.657524831348    0.000000000000
 H    1.553639212869   -2.033612831348    0.000000000000
 H   -0.015060787131   -2.038227831348    0.888337000000
 H   -0.015060787131   -2.038227831348   -0.888337000000
 C    0.476373212869   -0.101440831348    0.000000000000
 O   -0.690822787131    0.404782168652    0.000000000000
 O    1.600444212869    0.493977168652    0.000000000000
LI   -3.993570644045    1.837212478875    0.000000000000
