8

 C    0.527887447360   -1.661752724956    0.000000000000
 H    1.563387447360   -2.037840724956    0.000000000000
 H   -0.005312552640   -2.042455724956    0.888337000000
 H   -0.005312552640   -2.042455724956   -0.888337000000
 C    0.486121447360   -0.105668724956    0.000000000000
 O   -0.681074552640    0.400554275044    0.000000000000
 O    1.610192447360    0.489749275044    0.000000000000
LI   -4.075565405580    1.872774316106    0.000000000000
