8

 C    0.566880385321   -1.678664299391    0.000000000000
 H    1.602380385321   -2.054752299391    0.000000000000
 H    0.033680385321   -2.059367299391    0.888337000000
 H    0.033680385321   -2.059367299391   -0.888337000000
 C    0.525114385321   -0.122580299391    0.000000000000
 O   -0.642081614679    0.383642700609    0.000000000000
 O    1.649185385321    0.472837700609    0.000000000000
LI   -4.403544451721    2.015021665030    0.000000000000
