8

 C    0.605873323282   -1.695575873825    0.000000000000
 H    1.641373323282   -2.071663873825    0.000000000000
 H    0.072673323282   -2.076278873825    0.888337000000
 H    0.072673323282   -2.076278873825   -0.888337000000
 C    0.564107323282   -0.139491873825    0.000000000000
 O   -0.603088676718    0.366731126175    0.000000000000
 O    1.688178323282    0.455926126175    0.000000000000
LI   -4.731523497861    2.157269013954    0.000000000000
