8

 C    0.615621557773   -1.699803767434    0.000000000000
 H    1.651121557773   -2.075891767434    0.000000000000
 H    0.082421557773   -2.080506767434    0.888337000000
 H    0.082421557773   -2.080506767434   -0.888337000000
 C    0.573855557773   -0.143719767434    0.000000000000
 O   -0.593340442227    0.362503232566    0.000000000000
 O    1.697926557773    0.451698232566    0.000000000000
LI   -4.813518259396    2.192830851184    0.000000000000
