8

 C    0.625369792263   -1.704031661042    0.000000000000
 H    1.660869792263   -2.080119661042    0.000000000000
 H    0.092169792263   -2.084734661042    0.888337000000
 H    0.092169792263   -2.084734661042   -0.888337000000
 C    0.583603792263   -0.147947661042    0.000000000000
 O   -0.583592207737    0.358275338958    0.000000000000
 O    1.707674792263    0.447470338958    0.000000000000
LI   -4.895513020931    2.228392688415    0.000000000000
