8

 C    0.644866261243   -1.712487448260    0.000000000000
 H    1.680366261243   -2.088575448260    0.000000000000
 H    0.111666261243   -2.093190448260    0.888337000000
 H    0.111666261243   -2.093190448260   -0.888337000000
 C    0.603100261243   -0.156403448260    0.000000000000
 O   -0.564095738757    0.349819551740    0.000000000000
 O    1.727171261243    0.439014551740    0.000000000000
LI   -5.059502544002    2.299516362877    0.000000000000
