8

 C    0.674110964714   -1.725171129085    0.000000000000
 H    1.709610964714   -2.101259129085    0.000000000000
 H    0.140910964714   -2.105874129085    0.888337000000
 H    0.140910964714   -2.105874129085   -0.888337000000
 C    0.632344964714   -0.169087129085    0.000000000000
 O   -0.534851035286    0.337135870915    0.000000000000
 O    1.756415964714    0.426330870915    0.000000000000
LI   -5.305486828607    2.406201874570    0.000000000000
