8

 C    0.703355668185   -1.737854809911    0.000000000000
 H    1.738855668185   -2.113942809911    0.000000000000
 H    0.170155668185   -2.118557809911    0.888337000000
 H    0.170155668185   -2.118557809911   -0.888337000000
 C    0.661589668185   -0.181770809911    0.000000000000
 O   -0.505606331815    0.324452190089    0.000000000000
 O    1.785660668185    0.413647190089    0.000000000000
LI   -5.551471113212    2.512887386263    0.000000000000
