8

 C    0.713103902676   -1.742082703520    0.000000000000
 H    1.748603902676   -2.118170703520    0.000000000000
 H    0.179903902676   -2.122785703520    0.888337000000
 H    0.179903902676   -2.122785703520   -0.888337000000
 C    0.671337902676   -0.185998703520    0.000000000000
 O   -0.495858097324    0.320224296480    0.000000000000
 O    1.795408902676    0.409419296480    0.000000000000
LI   -5.633465874747    2.548449223494    0.000000000000
