8

 C    0.722852137166   -1.746310597128    0.000000000000
 H    1.758352137166   -2.122398597128    0.000000000000
 H    0.189652137166   -2.127013597128    0.888337000000
 H    0.189652137166   -2.127013597128   -0.888337000000
 C    0.681086137166   -0.190226597128    0.000000000000
 O   -0.486109862834    0.315996402872    0.000000000000
 O    1.805157137166    0.405191402872    0.000000000000
LI   -5.715460636282    2.584011060725    0.000000000000
