8

 C    0.742348606147   -1.754766384346    0.000000000000
 H    1.777848606147   -2.130854384346    0.000000000000
 H    0.209148606147   -2.135469384346    0.888337000000
 H    0.209148606147   -2.135469384346   -0.888337000000
 C    0.700582606147   -0.198682384346    0.000000000000
 O   -0.466613393853    0.307540615654    0.000000000000
 O    1.824653606147    0.396735615654    0.000000000000
LI   -5.879450159353    2.655134735186    0.000000000000
