8

 C    0.771593309617   -1.767450065171    0.000000000000
 H    1.807093309617   -2.143538065171    0.000000000000
 H    0.238393309617   -2.148153065171    0.888337000000
 H    0.238393309617   -2.148153065171   -0.888337000000
 C    0.729827309617   -0.211366065171    0.000000000000
 O   -0.437368690383    0.294856934829    0.000000000000
 O    1.853898309617    0.384051934829    0.000000000000
LI   -6.125434443958    2.761820246879    0.000000000000
