8

 C    0.800838013088   -1.780133745997    0.000000000000
 H    1.836338013088   -2.156221745997    0.000000000000
 H    0.267638013088   -2.160836745997    0.888337000000
 H    0.267638013088   -2.160836745997   -0.888337000000
 C    0.759072013088   -0.224049745997    0.000000000000
 O   -0.408123986912    0.282173254003    0.000000000000
 O    1.883143013088    0.371368254003    0.000000000000
LI   -6.371418728563    2.868505758572    0.000000000000
