8

 C    0.830082716559   -1.792817426823    0.000000000000
 H    1.865582716559   -2.168905426823    0.000000000000
 H    0.296882716559   -2.173520426823    0.888337000000
 H    0.296882716559   -2.173520426823   -0.888337000000
 C    0.788316716559   -0.236733426823    0.000000000000
 O   -0.378879283441    0.269489573177    0.000000000000
 O    1.912387716559    0.358684573177    0.000000000000
LI   -6.617403013169    2.975191270265    0.000000000000
