8

 C    0.839830951050   -1.797045320432    0.000000000000
 H    1.875330951050   -2.173133320432    0.000000000000
 H    0.306630951050   -2.177748320432    0.888337000000
 H    0.306630951050   -2.177748320432   -0.888337000000
 C    0.798064951050   -0.240961320432    0.000000000000
 O   -0.369131048950    0.265261679568    0.000000000000
 O    1.922135951050    0.354456679568    0.000000000000
LI   -6.699397774704    3.010753107496    0.000000000000
