8

 C    0.849579185540   -1.801273214040    0.000000000000
 H    1.885079185540   -2.177361214040    0.000000000000
 H    0.316379185540   -2.181976214040    0.888337000000
 H    0.316379185540   -2.181976214040   -0.888337000000
 C    0.807813185540   -0.245189214040    0.000000000000
 O   -0.359382814460    0.261033785960    0.000000000000
 O    1.931884185540    0.350228785960    0.000000000000
LI   -6.781392536239    3.046314944727    0.000000000000
