8

 C    0.937313295953   -1.839324256518    0.000000000000
 H    1.972813295953   -2.215412256518    0.000000000000
 H    0.404113295953   -2.220027256518    0.888337000000
 H    0.404113295953   -2.220027256518   -0.888337000000
 C    0.895547295953   -0.283240256518    0.000000000000
 O   -0.271648704047    0.222982743482    0.000000000000
 O    2.019618295953    0.312177743482    0.000000000000
LI   -7.519345390055    3.366371479805    0.000000000000
