8

 C    0.956809764933   -1.847780043735    0.000000000000
 H    1.992309764933   -2.223868043735    0.000000000000
 H    0.423609764933   -2.228483043735    0.888337000000
 H    0.423609764933   -2.228483043735   -0.888337000000
 C    0.915043764933   -0.291696043735    0.000000000000
 O   -0.252152235067    0.214526956265    0.000000000000
 O    2.039114764933    0.303721956265    0.000000000000
LI   -7.683334913125    3.437495154267    0.000000000000
