8

 C    0.995802702894   -1.864691618169    0.000000000000
 H    2.031302702894   -2.240779618169    0.000000000000
 H    0.462602702894   -2.245394618169    0.888337000000
 H    0.462602702894   -2.245394618169   -0.888337000000
 C    0.954036702894   -0.308607618169    0.000000000000
 O   -0.213159297106    0.197615381831    0.000000000000
 O    2.078107702894    0.286810381831    0.000000000000
LI   -8.011313959265    3.579742503190    0.000000000000
