8

 C    1.005550937385   -1.868919511778    0.000000000000
 H    2.041050937385   -2.245007511778    0.000000000000
 H    0.472350937385   -2.249622511778    0.888337000000
 H    0.472350937385   -2.249622511778   -0.888337000000
 C    0.963784937385   -0.312835511778    0.000000000000
 O   -0.203411062615    0.193387488222    0.000000000000
 O    2.087855937385    0.282582488222    0.000000000000
LI   -8.093308720800    3.615304340421    0.000000000000
