8

 C    1.044543875346   -1.885831086212    0.000000000000
 H    2.080043875346   -2.261919086212    0.000000000000
 H    0.511343875346   -2.266534086212    0.888337000000
 H    0.511343875346   -2.266534086212   -0.888337000000
 C    1.002777875346   -0.329747086212    0.000000000000
 O   -0.164418124654    0.176475913788    0.000000000000
 O    2.126848875346    0.265670913788    0.000000000000
LI   -8.421287766941    3.757551689345    0.000000000000
