8

 C    1.112781516778   -1.915426341472    0.000000000000
 H    2.148281516778   -2.291514341472    0.000000000000
 H    0.579581516778   -2.296129341472    0.888337000000
 H    0.579581516778   -2.296129341472   -0.888337000000
 C    1.071015516778   -0.359342341472    0.000000000000
 O   -0.096180483222    0.146880658528    0.000000000000
 O    2.195086516778    0.236075658528    0.000000000000
LI   -8.995251097686    4.006484549961    0.000000000000
