8

 C    1.122529751268   -1.919654235081    0.000000000000
 H    2.158029751268   -2.295742235081    0.000000000000
 H    0.589329751268   -2.300357235081    0.888337000000
 H    0.589329751268   -2.300357235081   -0.888337000000
 C    1.080763751268   -0.363570235081    0.000000000000
 O   -0.086432248732    0.142652764919    0.000000000000
 O    2.204834751268    0.231847764919    0.000000000000
LI   -9.077245859222    4.042046387192    0.000000000000
