16

 N   -2.052039972550    0.131032013718    0.052793497380
 C   -0.819914240283   -0.499258266290    0.053748457688
 N   -0.549773304157   -1.820143741258    0.050284268741
 C    0.778355864306   -2.038337634008    0.065851697404
 H    1.092164147276   -3.085016366498    0.069231268095
 N    1.790705307347   -1.130356676867    0.079822967679
 C    1.478488563440    0.180464406382    0.075176563779
 N    2.486115518242    1.104963043687    0.033354726848
 H    3.417567055629    0.774432934935    0.255812660981
 H    2.253378012215    2.064933798726    0.258164972288
 C    0.112987722566    0.557158260249    0.066405476064
 N   -0.510541588625    1.796123960879    0.076283685082
 C   -1.810467075782    1.488044572518    0.067828831924
 H   -2.620520604569    2.214625373620    0.071876969787
 H   -2.955829649720   -0.329225110116    0.045190441447
LI   -2.048966843574    0.135069902970   -1.247196599247
