16

 N   -2.052238432211    0.130771250783    0.136745585230
 C   -0.820112699944   -0.499519029225    0.137700545538
 N   -0.549971763818   -1.820404504193    0.134236356591
 C    0.778157404645   -2.038598396943    0.149803785254
 H    1.091965687615   -3.085277129433    0.153183355945
 N    1.790506847686   -1.130617439802    0.163775055529
 C    1.478290103779    0.180203643447    0.159128651629
 N    2.485917058581    1.104702280752    0.117306814698
 H    3.417368595968    0.774172172000    0.339764748831
 H    2.253179552554    2.064673035791    0.342117060138
 C    0.112789262905    0.556897497314    0.150357563914
 N   -0.510740048286    1.795863197944    0.160235772932
 C   -1.810665535443    1.487783809583    0.151780919774
 H   -2.620719064230    2.214364610685    0.155829057637
 H   -2.956028109381   -0.329485873051    0.129142529297
LI   -2.045146596112    0.140089456749   -2.863231560833
