16

 N   -2.052261780407    0.130740572791    0.146622301447
 C   -0.820136048140   -0.499549707217    0.147577261755
 N   -0.549995112014   -1.820435182185    0.144113072808
 C    0.778134056449   -2.038629074935    0.159680501471
 H    1.091942339419   -3.085307807425    0.163060072162
 N    1.790483499490   -1.130648117794    0.173651771746
 C    1.478266755583    0.180172965455    0.169005367846
 N    2.485893710385    1.104671602760    0.127183530915
 H    3.417345247772    0.774141494008    0.349641465048
 H    2.253156204358    2.064642357799    0.351993776355
 C    0.112765914709    0.556866819322    0.160234280131
 N   -0.510763396482    1.795832519952    0.170112489149
 C   -1.810688883639    1.487753131591    0.161657635991
 H   -2.620742412426    2.214333932693    0.165705773854
 H   -2.956051457577   -0.329516551043    0.139019245514
LI   -2.044697155234    0.140679992488   -3.053353321020
