16

 N   -2.052285128602    0.130709894798    0.156499017665
 C   -0.820159396335   -0.499580385210    0.157453977973
 N   -0.550018460209   -1.820465860178    0.153989789026
 C    0.778110708254   -2.038659752928    0.169557217689
 H    1.091918991224   -3.085338485418    0.172936788380
 N    1.790460151295   -1.130678795787    0.183528487964
 C    1.478243407388    0.180142287462    0.178882084064
 N    2.485870362190    1.104640924767    0.137060247133
 H    3.417321899577    0.774110816015    0.359518181266
 H    2.253132856163    2.064611679806    0.361870492573
 C    0.112742566514    0.556836141329    0.170110996349
 N   -0.510786744677    1.795801841959    0.179989205367
 C   -1.810712231834    1.487722453598    0.171534352209
 H   -2.620765760621    2.214303254700    0.175582490072
 H   -2.956074805772   -0.329547229036    0.148895961732
LI   -2.044247714356    0.141270528226   -3.243475081206
