16

 N   -2.052308476797    0.130679216806    0.166375733883
 C   -0.820182744530   -0.499611063202    0.167330694191
 N   -0.550041808404   -1.820496538170    0.163866505244
 C    0.778087360059   -2.038690430920    0.179433933907
 H    1.091895643029   -3.085369163410    0.182813504598
 N    1.790436803100   -1.130709473779    0.193405204182
 C    1.478220059193    0.180111609470    0.188758800282
 N    2.485847013995    1.104610246775    0.146936963351
 H    3.417298551382    0.774080138023    0.369394897484
 H    2.253109507968    2.064581001814    0.371747208791
 C    0.112719218319    0.556805463337    0.179987712567
 N   -0.510810092872    1.795771163967    0.189865921585
 C   -1.810735580029    1.487691775606    0.181411068427
 H   -2.620789108816    2.214272576708    0.185459206290
 H   -2.956098153967   -0.329577907028    0.158772677950
LI   -2.043798273478    0.141861063965   -3.433596841393
