16

 N   -2.052343499091    0.130633199817    0.181190808209
 C   -0.820217766824   -0.499657080191    0.182145768517
 N   -0.550076830698   -1.820542555159    0.178681579570
 C    0.778052337765   -2.038736447909    0.194249008233
 H    1.091860620735   -3.085415180399    0.197628578924
 N    1.790401780806   -1.130755490768    0.208220278508
 C    1.478185036899    0.180065592481    0.203573874608
 N    2.485811991701    1.104564229786    0.161752037677
 H    3.417263529088    0.774034121034    0.384209971810
 H    2.253074485674    2.064534984825    0.386562283117
 C    0.112684196025    0.556759446348    0.194802786893
 N   -0.510845115166    1.795725146978    0.204680995911
 C   -1.810770602323    1.487645758617    0.196226142753
 H   -2.620824131110    2.214226559719    0.200274280616
 H   -2.956133176261   -0.329623924017    0.173587752276
LI   -2.043124112161    0.142746867573   -3.718779481672
