16

 N   -2.052413543677    0.130541165840    0.210820956862
 C   -0.820287811410   -0.499749114168    0.211775917170
 N   -0.550146875284   -1.820634589136    0.208311728223
 C    0.777982293179   -2.038828481886    0.223879156886
 H    1.091790576149   -3.085507214376    0.227258727577
 N    1.790331736220   -1.130847524745    0.237850427161
 C    1.478114992313    0.179973558504    0.233204023261
 N    2.485741947115    1.104472195809    0.191382186330
 H    3.417193484502    0.773942087057    0.413840120463
 H    2.253004441088    2.064442950848    0.416192431770
 C    0.112614151439    0.556667412371    0.224432935546
 N   -0.510915159752    1.795633113001    0.234311144564
 C   -1.810840646909    1.487553724640    0.225856291406
 H   -2.620894175696    2.214134525742    0.229904429269
 H   -2.956203220847   -0.329715957994    0.203217900929
LI   -2.041775789528    0.144518474789   -4.289144762232
