16

 N   -2.052425217774    0.130525826844    0.215759314971
 C   -0.820299485507   -0.499764453164    0.216714275279
 N   -0.550158549381   -1.820649928132    0.213250086332
 C    0.777970619082   -2.038843820882    0.228817514995
 H    1.091778902052   -3.085522553372    0.232197085686
 N    1.790320062123   -1.130862863741    0.242788785270
 C    1.478103318216    0.179958219508    0.238142381370
 N    2.485730273018    1.104456856813    0.196320544439
 H    3.417181810405    0.773926748061    0.418778478572
 H    2.252992766991    2.064427611852    0.421130789879
 C    0.112602477342    0.556652073375    0.229371293655
 N   -0.510926833849    1.795617774005    0.239249502673
 C   -1.810852321006    1.487538385644    0.230794649515
 H   -2.620905849793    2.214119186746    0.234842787378
 H   -2.956214894944   -0.329731296990    0.208156259038
LI   -2.041551069089    0.144813742659   -4.384205642325
