16

 N   -2.052471914165    0.130464470859    0.235512747406
 C   -0.820346181898   -0.499825809149    0.236467707714
 N   -0.550205245772   -1.820711284117    0.233003518767
 C    0.777923922691   -2.038905176867    0.248570947430
 H    1.091732205661   -3.085583909357    0.251950518121
 N    1.790273365732   -1.130924219726    0.262542217705
 C    1.478056621825    0.179896863523    0.257895813805
 N    2.485683576627    1.104395500828    0.216073976874
 H    3.417135114014    0.773865392076    0.438531911007
 H    2.252946070600    2.064366255867    0.440884222314
 C    0.112555780951    0.556590717390    0.249124726090
 N   -0.510973530240    1.795556418020    0.259002935108
 C   -1.810899017397    1.487477029659    0.250548081950
 H   -2.620952546184    2.214057830761    0.254596219813
 H   -2.956261591335   -0.329792652975    0.227909691473
LI   -2.040652187333    0.145994814136   -4.764449162698
