16

 N   -2.052518610556    0.130403114875    0.255266179841
 C   -0.820392878289   -0.499887165133    0.256221140149
 N   -0.550251942163   -1.820772640101    0.252756951202
 C    0.777877226300   -2.038966532851    0.268324379865
 H    1.091685509270   -3.085645265341    0.271703950556
 N    1.790226669341   -1.130985575710    0.282295650140
 C    1.478009925434    0.179835507539    0.277649246240
 N    2.485636880236    1.104334144844    0.235827409309
 H    3.417088417623    0.773804036092    0.458285343442
 H    2.252899374209    2.064304899883    0.460637654749
 C    0.112509084560    0.556529361406    0.268878158525
 N   -0.511020226631    1.795495062036    0.278756367543
 C   -1.810945713788    1.487415673675    0.270301514385
 H   -2.620999242575    2.213996474777    0.274349652248
 H   -2.956308287726   -0.329854008959    0.247663123908
LI   -2.039753305577    0.147175885613   -5.144692683072
