16

 N   -2.052530284654    0.130387775878    0.260204537950
 C   -0.820404552387   -0.499902504130    0.261159498258
 N   -0.550263616261   -1.820787979098    0.257695309311
 C    0.777865552202   -2.038981871848    0.273262737974
 H    1.091673835172   -3.085660604338    0.276642308665
 N    1.790214995243   -1.131000914707    0.287234008249
 C    1.477998251336    0.179820168542    0.282587604349
 N    2.485625206138    1.104318805847    0.240765767418
 H    3.417076743525    0.773788697095    0.463223701551
 H    2.252887700111    2.064289560886    0.465576012858
 C    0.112497410462    0.556514022409    0.273816516634
 N   -0.511031900729    1.795479723039    0.283694725652
 C   -1.810957387886    1.487400334678    0.275239872494
 H   -2.621010916673    2.213981135780    0.279288010357
 H   -2.956319961824   -0.329869347956    0.252601482017
LI   -2.039528585138    0.147471153483   -5.239753563165
