16

 N   -2.052553632849    0.130357097886    0.270081254168
 C   -0.820427900582   -0.499933182122    0.271036214476
 N   -0.550286964456   -1.820818657090    0.267572025529
 C    0.777842204007   -2.039012549840    0.283139454192
 H    1.091650486977   -3.085691282330    0.286519024883
 N    1.790191647048   -1.131031592699    0.297110724467
 C    1.477974903141    0.179789490550    0.292464320567
 N    2.485601857943    1.104288127855    0.250642483636
 H    3.417053395330    0.773758019103    0.473100417769
 H    2.252864351916    2.064258882894    0.475452729076
 C    0.112474062267    0.556483344417    0.283693232852
 N   -0.511055248924    1.795449045047    0.293571441870
 C   -1.810980736081    1.487369656686    0.285116588712
 H   -2.621034264868    2.213950457788    0.289164726575
 H   -2.956343310019   -0.329900025948    0.262478198235
LI   -2.039079144261    0.148061689222   -5.429875323351
