16

 N   -2.052588655142    0.130311080897    0.284896328494
 C   -0.820462922875   -0.499979199111    0.285851288802
 N   -0.550321986749   -1.820864674079    0.282387099855
 C    0.777807181714   -2.039058566829    0.297954528518
 H    1.091615464684   -3.085737299319    0.301334099209
 N    1.790156624755   -1.131077609688    0.311925798793
 C    1.477939880848    0.179743473561    0.307279394893
 N    2.485566835650    1.104242110866    0.265457557962
 H    3.417018373037    0.773712002114    0.487915492095
 H    2.252829329623    2.064212865905    0.490267803402
 C    0.112439039974    0.556437327428    0.298508307178
 N   -0.511090271217    1.795403028058    0.308386516196
 C   -1.811015758374    1.487323639697    0.299931663038
 H   -2.621069287161    2.213904440799    0.303979800901
 H   -2.956378332312   -0.329946042937    0.277293272561
LI   -2.038404982944    0.148947492830   -5.715057963631
