16

 N   -2.052670373826    0.130203707924    0.319464835256
 C   -0.820544641559   -0.500086572084    0.320419795564
 N   -0.550403705433   -1.820972047052    0.316955606617
 C    0.777725463030   -2.039165939802    0.332523035280
 H    1.091533746000   -3.085844672292    0.335902605971
 N    1.790074906071   -1.131184982661    0.346494305555
 C    1.477858162164    0.179636100588    0.341847901655
 N    2.485485116966    1.104134737893    0.300026064724
 H    3.416936654353    0.773604629141    0.522483998857
 H    2.252747610939    2.064105492932    0.524836310164
 C    0.112357321290    0.556329954455    0.333076813940
 N   -0.511171989901    1.795295655085    0.342955022958
 C   -1.811097477058    1.487216266724    0.334500169800
 H   -2.621151005845    2.213797067826    0.338548307663
 H   -2.956460050996   -0.330053415910    0.311861779323
LI   -2.036831939871    0.151014367915   -6.380484124284
