16

 N   -2.052682047924    0.130188368928    0.324403193365
 C   -0.820556315657   -0.500101911080    0.325358153673
 N   -0.550415379531   -1.820987386048    0.321893964726
 C    0.777713788932   -2.039181278798    0.337461393389
 H    1.091522071902   -3.085860011288    0.340840964080
 N    1.790063231973   -1.131200321657    0.351432663664
 C    1.477846488066    0.179620761592    0.346786259764
 N    2.485473442868    1.104119398897    0.304964422833
 H    3.416924980255    0.773589290145    0.527422356966
 H    2.252735936841    2.064090153936    0.529774668273
 C    0.112345647192    0.556314615459    0.338015172049
 N   -0.511183663999    1.795280316089    0.347893381067
 C   -1.811109151156    1.487200927728    0.339438527909
 H   -2.621162679943    2.213781728830    0.343486665772
 H   -2.956471725094   -0.330068754906    0.316800137432
LI   -2.036607219432    0.151309635784   -6.475545004377
