16

 N   -2.052693722022    0.130173029932    0.329341551473
 C   -0.820567989755   -0.500117250076    0.330296511781
 N   -0.550427053629   -1.821002725044    0.326832322834
 C    0.777702114834   -2.039196617794    0.342399751497
 H    1.091510397804   -3.085875350284    0.345779322188
 N    1.790051557875   -1.131215660653    0.356371021772
 C    1.477834813968    0.179605422596    0.351724617872
 N    2.485461768770    1.104104059901    0.309902780941
 H    3.416913306157    0.773573951149    0.532360715074
 H    2.252724262743    2.064074814940    0.534713026381
 C    0.112333973094    0.556299276463    0.342953530157
 N   -0.511195338097    1.795264977093    0.352831739175
 C   -1.811120825254    1.487185588732    0.344376886017
 H   -2.621174354041    2.213766389834    0.348425023880
 H   -2.956483399192   -0.330084093902    0.321738495540
LI   -2.036382498993    0.151604903654   -6.570605884471
