16

 N   -2.052717070217    0.130142351939    0.339218267691
 C   -0.820591337950   -0.500147928069    0.340173227999
 N   -0.550450401824   -1.821033403037    0.336709039052
 C    0.777678766639   -2.039227295787    0.352276467715
 H    1.091487049609   -3.085906028277    0.355656038406
 N    1.790028209680   -1.131246338646    0.366247737990
 C    1.477811465773    0.179574744603    0.361601334090
 N    2.485438420575    1.104073381908    0.319779497159
 H    3.416889957962    0.773543273156    0.542237431292
 H    2.252700914548    2.064044136947    0.544589742599
 C    0.112310624899    0.556268598470    0.352830246375
 N   -0.511218686292    1.795234299100    0.362708455393
 C   -1.811144173449    1.487154910739    0.354253602235
 H   -2.621197702236    2.213735711841    0.358301740098
 H   -2.956506747387   -0.330114771895    0.331615211758
LI   -2.035933058115    0.152195439392   -6.760727644657
