16

 N   -2.052752092510    0.130096334951    0.354033342018
 C   -0.820626360243   -0.500193945057    0.354988302326
 N   -0.550485424117   -1.821079420025    0.351524113379
 C    0.777643744346   -2.039273312775    0.367091542042
 H    1.091452027316   -3.085952045265    0.370471112733
 N    1.789993187387   -1.131292355634    0.381062812317
 C    1.477776443480    0.179528727615    0.376416408417
 N    2.485403398282    1.104027364920    0.334594571486
 H    3.416854935669    0.773497256168    0.557052505619
 H    2.252665892255    2.063998119959    0.559404816926
 C    0.112275602606    0.556222581482    0.367645320702
 N   -0.511253708585    1.795188282112    0.377523529720
 C   -1.811179195742    1.487108893751    0.369068676562
 H   -2.621232724529    2.213689694853    0.373116814425
 H   -2.956541769680   -0.330160788883    0.346430286085
LI   -2.035258896799    0.153081243001   -7.045910284937
