16

 N   -2.052763766608    0.130080995955    0.358971700126
 C   -0.820638034341   -0.500209284053    0.359926660434
 N   -0.550497098215   -1.821094759021    0.356462471487
 C    0.777632070248   -2.039288651771    0.372029900150
 H    1.091440353218   -3.085967384261    0.375409470841
 N    1.789981513289   -1.131307694630    0.386001170425
 C    1.477764769382    0.179513388619    0.381354766525
 N    2.485391724184    1.104012025924    0.339532929594
 H    3.416843261571    0.773481917172    0.561990863727
 H    2.252654218157    2.063982780963    0.564343175034
 C    0.112263928508    0.556207242486    0.372583678810
 N   -0.511265382683    1.795172943116    0.382461887828
 C   -1.811190869840    1.487093554755    0.374007034670
 H   -2.621244398627    2.213674355857    0.378055172533
 H   -2.956553443778   -0.330176127879    0.351368644193
LI   -2.035034176360    0.153376510870   -7.140971165030
