16

 N   -2.052798788901    0.130034978966    0.373786774453
 C   -0.820673056634   -0.500255301042    0.374741734761
 N   -0.550532120508   -1.821140776010    0.371277545814
 C    0.777597047955   -2.039334668760    0.386844974477
 H    1.091405330925   -3.086013401250    0.390224545168
 N    1.789946490996   -1.131353711619    0.400816244752
 C    1.477729747089    0.179467371630    0.396169840852
 N    2.485356701891    1.103966008935    0.354348003921
 H    3.416808239278    0.773435900183    0.576805938054
 H    2.252619195864    2.063936763974    0.579158249361
 C    0.112228906215    0.556161225497    0.387398753137
 N   -0.511300404976    1.795126926127    0.397276962155
 C   -1.811225892133    1.487047537766    0.388822108997
 H   -2.621279420920    2.213628338868    0.392870246860
 H   -2.956588466071   -0.330222144868    0.366183718520
LI   -2.034360015043    0.154262314478   -7.426153805310
