16

 N   -2.052822137096    0.130004300974    0.383663490670
 C   -0.820696404829   -0.500285979034    0.384618450978
 N   -0.550555468703   -1.821171454002    0.381154262031
 C    0.777573699760   -2.039365346752    0.396721690694
 H    1.091381982730   -3.086044079242    0.400101261385
 N    1.789923142801   -1.131384389611    0.410692960969
 C    1.477706398894    0.179436693638    0.406046557069
 N    2.485333353696    1.103935330943    0.364224720138
 H    3.416784891083    0.773405222191    0.586682654271
 H    2.252595847669    2.063906085982    0.589034965578
 C    0.112205558020    0.556130547505    0.397275469354
 N   -0.511323753171    1.795096248135    0.407153678372
 C   -1.811249240328    1.487016859774    0.398698825214
 H   -2.621302769115    2.213597660876    0.402746963077
 H   -2.956611814266   -0.330252822860    0.376060434737
LI   -2.033910574165    0.154852850217   -7.616275565497
