16

 N   -2.052845485292    0.129973622981    0.393540206888
 C   -0.820719753025   -0.500316657027    0.394495167196
 N   -0.550578816899   -1.821202131995    0.391030978249
 C    0.777550351564   -2.039396024745    0.406598406912
 H    1.091358634534   -3.086074757235    0.409977977603
 N    1.789899794605   -1.131415067604    0.420569677187
 C    1.477683050698    0.179406015645    0.415923273287
 N    2.485310005500    1.103904652950    0.374101436356
 H    3.416761542887    0.773374544198    0.596559370489
 H    2.252572499473    2.063875407989    0.598911681796
 C    0.112182209824    0.556099869512    0.407152185572
 N   -0.511347101367    1.795065570142    0.417030394590
 C   -1.811272588524    1.486986181781    0.408575541432
 H   -2.621326117311    2.213566982883    0.412623679295
 H   -2.956635162462   -0.330283500853    0.385937150955
LI   -2.033461133287    0.155443385955   -7.806397325683
