16

 N   -2.052857159389    0.129958283985    0.398478564997
 C   -0.820731427122   -0.500331996023    0.399433525305
 N   -0.550590490996   -1.821217470991    0.395969336358
 C    0.777538677467   -2.039411363741    0.411536765021
 H    1.091346960437   -3.086090096231    0.414916335712
 N    1.789888120508   -1.131430406600    0.425508035296
 C    1.477671376601    0.179390676649    0.420861631396
 N    2.485298331403    1.103889313954    0.379039794465
 H    3.416749868790    0.773359205202    0.601497728598
 H    2.252560825376    2.063860068993    0.603850039905
 C    0.112170535727    0.556084530516    0.412090543681
 N   -0.511358775464    1.795050231146    0.421968752699
 C   -1.811284262621    1.486970842785    0.413513899541
 H   -2.621337791408    2.213551643887    0.417562037404
 H   -2.956646836559   -0.330298839849    0.390875509064
LI   -2.033236412848    0.155738653825   -7.901458205776
