16

 N   -2.052915529878    0.129881589004    0.423170355541
 C   -0.820789797611   -0.500408691004    0.424125315849
 N   -0.550648861485   -1.821294165972    0.420661126902
 C    0.777480306978   -2.039488058722    0.436228555565
 H    1.091288589948   -3.086166791212    0.439608126256
 N    1.789829750019   -1.131507101581    0.450199825840
 C    1.477613006112    0.179313981668    0.445553421940
 N    2.485239960914    1.103812618973    0.403731585009
 H    3.416691498301    0.773282510221    0.626189519142
 H    2.252502454887    2.063783374012    0.628541830449
 C    0.112112165238    0.556007835535    0.436782334225
 N   -0.511417145953    1.794973536165    0.446660543243
 C   -1.811342633110    1.486894147804    0.438205690085
 H   -2.621396161897    2.213474948906    0.442253827948
 H   -2.956705207048   -0.330375534830    0.415567299608
LI   -2.032112810653    0.157214993171   -8.376762606243
