16

 N   -2.052927203976    0.129866250008    0.428108713650
 C   -0.820801471709   -0.500424030000    0.429063673958
 N   -0.550660535583   -1.821309504968    0.425599485011
 C    0.777468632880   -2.039503397718    0.441166913674
 H    1.091276915850   -3.086182130208    0.444546484365
 N    1.789818075921   -1.131522440577    0.455138183949
 C    1.477601332014    0.179298642672    0.450491780049
 N    2.485228286816    1.103797279977    0.408669943118
 H    3.416679824203    0.773267171225    0.631127877251
 H    2.252490780789    2.063768035016    0.633480188558
 C    0.112100491140    0.555992496539    0.441720692334
 N   -0.511428820051    1.794958197169    0.451598901352
 C   -1.811354307208    1.486878808808    0.443144048194
 H   -2.621407835995    2.213459609910    0.447192186057
 H   -2.956716881146   -0.330390873826    0.420505657717
LI   -2.031888090214    0.157510261041   -8.471823486336
