16

 N   -2.052938878073    0.129850911012    0.433047071759
 C   -0.820813145806   -0.500439368996    0.434002032067
 N   -0.550672209680   -1.821324843964    0.430537843120
 C    0.777456958783   -2.039518736714    0.446105271783
 H    1.091265241753   -3.086197469204    0.449484842474
 N    1.789806401824   -1.131537779573    0.460076542058
 C    1.477589657917    0.179283303676    0.455430138158
 N    2.485216612719    1.103781940981    0.413608301227
 H    3.416668150106    0.773251832229    0.636066235360
 H    2.252479106692    2.063752696020    0.638418546667
 C    0.112088817043    0.555977157543    0.446659050443
 N   -0.511440494148    1.794942858173    0.456537259461
 C   -1.811365981305    1.486863469812    0.448082406303
 H   -2.621419510092    2.213444270914    0.452130544166
 H   -2.956728555243   -0.330406212822    0.425444015826
LI   -2.031663369776    0.157805528910   -8.566884366429
