16

 N   -2.052973900366    0.129804894023    0.447862146085
 C   -0.820848168099   -0.500485385985    0.448817106393
 N   -0.550707231973   -1.821370860953    0.445352917446
 C    0.777421936490   -2.039564753703    0.460920346109
 H    1.091230219460   -3.086243486193    0.464299916800
 N    1.789771379531   -1.131583796562    0.474891616384
 C    1.477554635624    0.179237286687    0.470245212484
 N    2.485181590426    1.103735923992    0.428423375553
 H    3.416633127813    0.773205815240    0.650881309686
 H    2.252444084399    2.063706679031    0.653233620993
 C    0.112053794750    0.555931140554    0.461474124769
 N   -0.511475516441    1.794896841184    0.471352333787
 C   -1.811401003598    1.486817452823    0.462897480629
 H   -2.621454532385    2.213398253925    0.466945618492
 H   -2.956763577536   -0.330452229811    0.440259090152
LI   -2.030989208459    0.158691332518   -8.852067006709
