6

 H   -0.200718066734    1.641096572620    1.735797442893
 H    0.249338933266   -0.020828427380    2.192297442893
 H   -1.412628066734    0.337782572620    1.661071442893
 C   -0.347559066734    0.575293572620    1.475714442893
 S    0.135609933266    0.226192572620   -0.271568557107
NA    0.052617272847   -0.700691696059   -0.637625616582
