6

 H   -0.192539284800    1.732439400696    1.771871727655
 H    0.257517715200    0.070514400696    2.228371727655
 H   -1.404449284800    0.429125400696    1.697145727655
 C   -0.339380284800    0.666636400696    1.511788727655
 S    0.143788715200    0.317535400696   -0.235494272345
NA    0.035898256656   -0.887414148587   -0.711368449663
