6

 H   -0.181634242220    1.854229838131    1.819970774004
 H    0.268422757780    0.192304838131    2.276470774004
 H   -1.393544242220    0.550915838131    1.745244774004
 C   -0.328475242220    0.788426838131    1.559887774004
 S    0.154693757780    0.439325838131   -0.187395225996
NA    0.013606235068   -1.136377418624   -0.809692227104
