6

 H   -0.176181720931    1.915125056848    1.844020297179
 H    0.273875279069    0.253200056848    2.300520297179
 H   -1.388091720931    0.611811056848    1.769294297179
 C   -0.323022720931    0.849322056848    1.583937297179
 S    0.160146279069    0.500221056848   -0.163345702821
NA    0.002460224274   -1.260859053642   -0.858854115824
