6

 H    0.044645391305    4.381381414902    2.818025985751
 H    0.494702391305    2.719456414902    3.274525985751
 H   -1.167264608695    3.078067414902    2.743299985751
 C   -0.102195608695    3.315578414902    2.557942985751
 S    0.380973391305    2.966477414902    0.810659985751
NA   -0.448953212880   -6.302365271890   -2.849910609002
