6

 H   -0.173455460286    1.945572666207    1.856045058766
 H    0.276601539714    0.283647666207    2.312545058766
 H   -1.385365460286    0.642258666207    1.781319058766
 C   -0.320296460286    0.879769666207    1.595962058766
 S    0.162872539714    0.530668666207   -0.151320941234
NA   -0.003112781123   -1.323099871151   -0.883435060184
