6

 H   -0.159824157061    2.097810713000    1.916168866703
 H    0.290232842939    0.435885713000    2.372668866703
 H   -1.371734157061    0.794496713000    1.841442866703
 C   -0.306665157061    1.032007713000    1.656085866703
 S    0.176503842939    0.682906713000   -0.091197133297
NA   -0.030977808108   -1.634303958697   -1.006339781985
