6

 H   -0.157097896416    2.128258322359    1.928193628290
 H    0.292959103584    0.466333322359    2.384693628290
 H   -1.369007896416    0.824944322359    1.853467628290
 C   -0.303938896416    1.062455322359    1.668110628290
 S    0.179230103584    0.713354322359   -0.079172371710
NA   -0.036550813504   -1.696544776207   -1.030920726346
