6

 H   -0.151645375127    2.189153541077    1.952243151465
 H    0.298411624873    0.527228541077    2.408743151465
 H   -1.363555375127    0.885839541077    1.877517151465
 C   -0.298486375127    1.123350541077    1.692160151465
 S    0.184682624873    0.774249541077   -0.055122848535
NA   -0.047696824298   -1.821026411225   -1.080082615066
