6

 H   -0.124382768678    2.493629634663    2.072490767338
 H    0.325674231322    0.831704634663    2.528990767338
 H   -1.336292768678    1.190315634663    1.997764767338
 C   -0.271223768678    1.427826634663    1.812407767338
 S    0.211945231322    1.078725634663    0.065124767338
NA   -0.103426878268   -2.443434586317   -1.325892058668
