6

 H   -0.116203986743    2.584972462739    2.108565052100
 H    0.333853013257    0.923047462739    2.565065052100
 H   -1.328113986743    1.281658462739    2.033839052100
 C   -0.263044986743    1.519169462739    1.848482052100
 S    0.220124013257    1.170068462739    0.101199052100
NA   -0.120145894459   -2.630157038845   -1.399634891749
