6

 H   -0.113477726098    2.615420072098    2.120589813687
 H    0.336579273902    0.953495072098    2.577089813687
 H   -1.325387726098    1.312106072098    2.045863813687
 C   -0.260318726098    1.549617072098    1.860506813687
 S    0.222850273902    1.200516072098    0.113223813687
NA   -0.125718899856   -2.692397856354   -1.424215836109
