6

 H   -0.105298944164    2.706762900174    2.156664098449
 H    0.344758055836    1.044837900174    2.613164098449
 H   -1.317208944164    1.403448900174    2.081938098449
 C   -0.252139944164    1.640959900174    1.896581098449
 S    0.231029055836    1.291858900174    0.149298098449
NA   -0.142437916047   -2.879120308882   -1.497958669190
