6

 H   -0.099846422874    2.767658118892    2.180713621624
 H    0.350210577126    1.105733118892    2.637213621624
 H   -1.311756422874    1.464344118892    2.105987621624
 C   -0.246687422874    1.701855118892    1.920630621624
 S    0.236481577126    1.352754118892    0.173347621624
NA   -0.153583926841   -3.003601943901   -1.547120557910
