6

 H   -0.097120162229    2.798105728250    2.192738383211
 H    0.352936837771    1.136180728250    2.649238383211
 H   -1.309030162229    1.494791728250    2.118012383211
 C   -0.243961162229    1.732302728250    1.932655383211
 S    0.239207837771    1.383201728250    0.185372383211
NA   -0.159156932238   -3.065842761410   -1.571701502270
