6

 H   -0.091667640939    2.859000946968    2.216787906386
 H    0.358389359061    1.197075946968    2.673287906386
 H   -1.303577640939    1.555686946968    2.142061906386
 C   -0.238508640939    1.793197946968    1.956704906386
 S    0.244660359061    1.444096946968    0.209421906386
NA   -0.170302943032   -3.190324396428   -1.620863390991
