6

 H   -0.088941380294    2.889448556326    2.228812667973
 H    0.361115619706    1.227523556326    2.685312667973
 H   -1.300851380294    1.586134556326    2.154086667973
 C   -0.235782380294    1.823645556326    1.968729667973
 S    0.247386619706    1.474544556326    0.221446667973
NA   -0.175875948429   -3.252565213937   -1.645444335351
