6

 H   -0.083488859005    2.950343775044    2.252862191148
 H    0.366568140995    1.288418775044    2.709362191148
 H   -1.295398859005    1.647029775044    2.178136191148
 C   -0.230329859005    1.884540775044    1.992779191148
 S    0.252839140995    1.535439775044    0.245496191148
NA   -0.187021959223   -3.377046848956   -1.694606224072
