6

 H   -0.078036337715    3.011238993761    2.276911714322
 H    0.372020662285    1.349313993761    2.733411714322
 H   -1.289946337715    1.707924993761    2.202185714322
 C   -0.224877337715    1.945435993761    2.016828714322
 S    0.258291662285    1.596334993761    0.269545714322
NA   -0.198167970017   -3.501528483974   -1.743768112792
