6

 H   -0.075310077070    3.041686603120    2.288936475909
 H    0.374746922930    1.379761603120    2.745436475909
 H   -1.287220077070    1.738372603120    2.214210475909
 C   -0.222151077070    1.975883603120    2.028853475909
 S    0.261017922930    1.626782603120    0.281570475909
NA   -0.203740975414   -3.563769301484   -1.768349057152
