6

 H   -0.072583816425    3.072134212478    2.300961237497
 H    0.377473183575    1.410209212478    2.757461237497
 H   -1.284493816425    1.768820212478    2.226235237497
 C   -0.219424816425    2.006331212478    2.040878237497
 S    0.263744183575    1.657230212478    0.293595237497
NA   -0.209313980811   -3.626010118993   -1.792930001512
