6

 H   -0.067131295135    3.133029431196    2.325010760671
 H    0.382925704865    1.471104431196    2.781510760671
 H   -1.279041295135    1.829715431196    2.250284760671
 C   -0.213972295135    2.067226431196    2.064927760671
 S    0.269196704865    1.718125431196    0.317644760671
NA   -0.220459991604   -3.750491754011   -1.842091890233
