6

 H   -0.053499991911    3.285267477989    2.385134568608
 H    0.396557008089    1.623342477989    2.841634568608
 H   -1.265409991911    1.981953477989    2.310408568608
 C   -0.200340991911    2.219464477989    2.125051568608
 S    0.282828008089    1.870363477989    0.377768568608
NA   -0.248325018589   -4.061695841557   -1.964996612034
