6

 H   -0.048047470621    3.346162696707    2.409184091783
 H    0.402009529379    1.684237696707    2.865684091783
 H   -1.259957470621    2.042848696707    2.334458091783
 C   -0.194888470621    2.280359696707    2.149101091783
 S    0.288280529379    1.931258696707    0.401818091783
NA   -0.259471029383   -4.186177476576   -2.014158500755
