6

 H   -0.042594949331    3.407057915424    2.433233614957
 H    0.407462050669    1.745132915424    2.889733614957
 H   -1.254504949331    2.103743915424    2.358507614957
 C   -0.189435949331    2.341254915424    2.173150614957
 S    0.293733050669    1.992153915424    0.425867614957
NA   -0.270617040177   -4.310659111594   -2.063320389475
