6

 H   -0.034416167397    3.498400743500    2.469307899719
 H    0.415640832603    1.836475743500    2.925807899719
 H   -1.246326167397    2.195086743500    2.394581899719
 C   -0.181257167397    2.432597743500    2.209224899719
 S    0.301911832603    2.083496743500    0.461941899719
NA   -0.287336056368   -4.497381564122   -2.137063222556
