6

 H   -0.026237385462    3.589743571576    2.505382184481
 H    0.423819614538    1.927818571576    2.961882184481
 H   -1.238147385462    2.286429571576    2.430656184481
 C   -0.173078385462    2.523940571576    2.245299184481
 S    0.310090614538    2.174839571576    0.498016184481
NA   -0.304055072559   -4.684104016650   -2.210806055636
