6

 H   -0.023511124817    3.620191180935    2.517406946068
 H    0.426545875183    1.958266180935    2.973906946068
 H   -1.235421124817    2.316877180935    2.442680946068
 C   -0.170352124817    2.554388180935    2.257323946068
 S    0.312816875183    2.205287180935    0.510040946068
NA   -0.309628077956   -4.746344834159   -2.235386999997
