6

 H   -0.018058603527    3.681086399652    2.541456469243
 H    0.431998396473    2.019161399652    2.997956469243
 H   -1.229968603527    2.377772399652    2.466730469243
 C   -0.164899603527    2.615283399652    2.281373469243
 S    0.318269396473    2.266182399652    0.534090469243
NA   -0.320774088750   -4.870826469177   -2.284548888717
