6

 H   -0.009879821593    3.772429227728    2.577530754005
 H    0.440177178407    2.110504227728    3.034030754005
 H   -1.221789821593    2.469115227728    2.502804754005
 C   -0.156720821593    2.706626227728    2.317447754005
 S    0.326448178407    2.357525227728    0.570164754005
NA   -0.337493104941   -5.057548921705   -2.358291721798
