6

 H   -0.007153560948    3.802876837087    2.589555515592
 H    0.442903439052    2.140951837087    3.046055515592
 H   -1.219063560948    2.499562837087    2.514829515592
 C   -0.153994560948    2.737073837087    2.329472515592
 S    0.329174439052    2.387972837087    0.582189515592
NA   -0.343066110338   -5.119789739214   -2.382872666158
