6

 H    0.001025220987    3.894219665163    2.625629800354
 H    0.451082220987    2.232294665163    3.082129800354
 H   -1.210884779013    2.590905665163    2.550903800354
 C   -0.145815779013    2.828416665163    2.365546800354
 S    0.337353220987    2.479315665163    0.618263800354
NA   -0.359785126529   -5.306512191742   -2.456615499239
