6

 H    0.006477742277    3.955114883880    2.649679323529
 H    0.456534742277    2.293189883880    3.106179323529
 H   -1.205432257723    2.651800883880    2.574953323529
 C   -0.140363257723    2.889311883880    2.389596323529
 S    0.342805742277    2.540210883880    0.642313323529
NA   -0.370931137323   -5.430993826761   -2.505777387959
