6

 H    0.009204002921    3.985562493239    2.661704085116
 H    0.459261002921    2.323637493239    3.118204085116
 H   -1.202705997079    2.682248493239    2.586978085116
 C   -0.137636997079    2.919759493239    2.401621085116
 S    0.345532002921    2.570658493239    0.654338085116
NA   -0.376504142720   -5.493234644270   -2.530358332319
