6

 H    0.022835306146    4.137800540033    2.721827893053
 H    0.472892306146    2.475875540033    3.178327893053
 H   -1.189074693854    2.834486540033    2.647101893053
 C   -0.124005693854    3.071997540033    2.461744893053
 S    0.359163306146    2.722896540033    0.714461893053
NA   -0.404369169704   -5.804438731816   -2.653263054120
