6

 H    0.028287827436    4.198695758750    2.745877416227
 H    0.478344827436    2.536770758750    3.202377416227
 H   -1.183622172564    2.895381758750    2.671151416227
 C   -0.118553172564    3.132892758750    2.485794416227
 S    0.364615827436    2.783791758750    0.738511416227
NA   -0.415515180498   -5.928920366834   -2.702424942841
