6

 H    0.031014088081    4.229143368109    2.757902177815
 H    0.481071088081    2.567218368109    3.214402177815
 H   -1.180895911919    2.925829368109    2.683176177815
 C   -0.115826911919    3.163340368109    2.497819177815
 S    0.367342088081    2.814239368109    0.750536177815
NA   -0.421088185895   -5.991161184344   -2.727005887201
