13

 N   -1.370714042074    1.056979805625    0.000321349258
 C   -0.196974458991    1.784351997135    0.000008870088
 H   -0.314691319054    2.869670456179   -0.000106977471
 C   -1.416490015154   -0.336231986242   -0.000063705311
 O   -2.468078183710   -0.970335300083    0.000279661793
 N   -0.156049474013   -0.919702042374    0.000353198011
 H   -0.146233676890   -1.937987154240    0.000325893916
 C    1.105204815220   -0.283646555411    0.000370292847
 O    2.138897743288   -0.952910389827   -0.000375372817
 C    1.023726023460    1.176900505979   -0.000129604600
 H    1.947126161762    1.753960764845   -0.000470281377
 H   -2.274451218022    1.516633926985    0.000119697658
LI    3.029276922958   -0.497691969367   -0.001427078031
