13

 N   -1.375961632145    1.054296904095    0.000327547648
 C   -0.202222049062    1.781669095605    0.000015068478
 H   -0.319938909125    2.866987554649   -0.000100779081
 C   -1.421737605225   -0.338914887772   -0.000057506921
 O   -2.473325773781   -0.973018201613    0.000285860183
 N   -0.161297064084   -0.922384943904    0.000359396401
 H   -0.151481266961   -1.940670055770    0.000332092306
 C    1.099957225149   -0.286329456941    0.000376491237
 O    2.133650153217   -0.955593291357   -0.000369174427
 C    1.018478433389    1.174217604449   -0.000123406210
 H    1.941878571691    1.751277863315   -0.000464082987
 H   -2.279698808093    1.513951025455    0.000125896048
LI    3.113067250853   -0.454853028850   -0.001526050162
