13

 N   -1.386456812288    1.048931101035    0.000339944429
 C   -0.212717229205    1.776303292545    0.000027465259
 H   -0.330434089268    2.861621751589   -0.000088382300
 C   -1.432232785368   -0.344280690832   -0.000045110140
 O   -2.483820953924   -0.978384004673    0.000298256964
 N   -0.171792244227   -0.927750746964    0.000371793182
 H   -0.161976447104   -1.946035858830    0.000344489087
 C    1.089462045006   -0.291695260001    0.000388888018
 O    2.123154973074   -0.960959094417   -0.000356777646
 C    1.007983253246    1.168851801389   -0.000111009429
 H    1.931383391548    1.745912060255   -0.000451686206
 H   -2.290193988236    1.508585222395    0.000138292829
LI    3.280647906645   -0.369175147818   -0.001723994424
