13

 N   -1.391704402359    1.046248199505    0.000346142820
 C   -0.217964819276    1.773620391015    0.000033663650
 H   -0.335681679339    2.858938850059   -0.000082183909
 C   -1.437480375439   -0.346963592362   -0.000038911749
 O   -2.489068543995   -0.981066906203    0.000304455355
 N   -0.177039834298   -0.930433648494    0.000377991573
 H   -0.167224037175   -1.948718760360    0.000350687478
 C    1.084214454935   -0.294378161531    0.000395086409
 O    2.117907383003   -0.963641995947   -0.000350579255
 C    1.002735663175    1.166168899859   -0.000104811038
 H    1.926135801477    1.743229158725   -0.000445487815
 H   -2.295441578307    1.505902320865    0.000144491220
LI    3.364438234541   -0.326336207302   -0.001822966555
