13

 N   -1.412694762644    1.035516593385    0.000370936382
 C   -0.238955179561    1.762888784895    0.000058457212
 H   -0.356672039624    2.848207243939   -0.000057390347
 C   -1.458470735724   -0.357695198482   -0.000014118187
 O   -2.510058904280   -0.991798512323    0.000329248917
 N   -0.198030194583   -0.941165254614    0.000402785135
 H   -0.188214397460   -1.959450366480    0.000375481040
 C    1.063224094650   -0.305109767651    0.000419879971
 O    2.096917022718   -0.974373602067   -0.000325785693
 C    0.981745302890    1.155437293739   -0.000080017476
 H    1.905145441192    1.732497552605   -0.000420694253
 H   -2.316431938592    1.495170714745    0.000169284782
LI    3.699599546124   -0.154980445238   -0.002218855079
