13

 N   -1.842997148485    0.815518667922    0.000879204402
 C   -0.669257565402    1.542890859432    0.000566725232
 H   -0.786974425465    2.628209318476    0.000450877673
 C   -1.888773121565   -0.577693123945    0.000494149833
 O   -2.940361290121   -1.211796437786    0.000837516937
 N   -0.628332580424   -1.161163180077    0.000911053155
 H   -0.618516783301   -2.179448291943    0.000883749060
 C    0.632921708809   -0.525107693114    0.000928147991
 O    1.666614636877   -1.194371527530    0.000182482327
 C    0.551442917049    0.935439368276    0.000428250544
 H    1.474843055351    1.512499627142    0.000087573767
 H   -2.746734324433    1.275172789282    0.000677552802
LI   10.570406433576    3.357812677074   -0.010334569815
