13

 N   -1.423189942787    1.030150790325    0.000383333163
 C   -0.249450359704    1.757522981835    0.000070853993
 H   -0.367167219767    2.842841440879   -0.000044993566
 C   -1.468965915867   -0.363061001542   -0.000001721406
 O   -2.520554084423   -0.997164315383    0.000341645698
 N   -0.208525374726   -0.946531057674    0.000415181916
 H   -0.198709577603   -1.964816169540    0.000387877821
 C    1.052728914507   -0.310475570711    0.000432276752
 O    2.086421842575   -0.979739405127   -0.000313388912
 C    0.971250122747    1.150071490679   -0.000067620695
 H    1.894650261049    1.727131749545   -0.000408297472
 H   -2.326927118735    1.489804911685    0.000181681563
LI    3.867180201915   -0.069302564206   -0.002416799341
