13

 N   -1.428437532858    1.027467888795    0.000389531553
 C   -0.254697949775    1.754840080305    0.000077052383
 H   -0.372414809838    2.840158539349   -0.000038795176
 C   -1.474213505938   -0.365743903072    0.000004476984
 O   -2.525801674494   -0.999847216913    0.000347844088
 N   -0.213772964797   -0.949213959204    0.000421380306
 H   -0.203957167674   -1.967499071070    0.000394076211
 C    1.047481324436   -0.313158472241    0.000438475142
 O    2.081174252504   -0.982422306657   -0.000307190522
 C    0.966002532676    1.147388589149   -0.000061422305
 H    1.889402670978    1.724448848015   -0.000402099082
 H   -2.332174708806    1.487122010155    0.000187879953
LI    3.950970529811   -0.026463623690   -0.002515771472
