13

 N   -1.438932713000    1.022102085735    0.000401928334
 C   -0.265193129917    1.749474277245    0.000089449164
 H   -0.382909989980    2.834792736289   -0.000026398395
 C   -1.484708686080   -0.371109706132    0.000016873765
 O   -2.536296854636   -1.005213019973    0.000360240869
 N   -0.224268144939   -0.954579762264    0.000433777087
 H   -0.214452347816   -1.972864874130    0.000406472992
 C    1.036986144294   -0.318524275301    0.000450871923
 O    2.070679072362   -0.987788109717   -0.000294793741
 C    0.955507352534    1.142022786089   -0.000049025524
 H    1.878907490836    1.719083044955   -0.000389702301
 H   -2.342669888948    1.481756207095    0.000200276734
LI    4.118551185602    0.059214257342   -0.002713715733
