13

 N   -1.444180303071    1.019419184204    0.000408126725
 C   -0.270440719988    1.746791375714    0.000095647555
 H   -0.388157580051    2.832109834758   -0.000020200004
 C   -1.489956276151   -0.373792607663    0.000023072156
 O   -2.541544444707   -1.007895921504    0.000366439260
 N   -0.229515735010   -0.957262663795    0.000439975478
 H   -0.219699937887   -1.975547775661    0.000412671383
 C    1.031738554223   -0.321207176832    0.000457070314
 O    2.065431482291   -0.990471011248   -0.000288595350
 C    0.950259762463    1.139339884558   -0.000042827133
 H    1.873659900765    1.716400143424   -0.000383503910
 H   -2.347917479019    1.479073305564    0.000206475125
LI    4.202341513498    0.102053197858   -0.002812687864
