13

 N   -1.475665843499    1.003321775024    0.000445317068
 C   -0.301926260416    1.730693966534    0.000132837898
 H   -0.419643120479    2.816012425578    0.000016990339
 C   -1.521441816579   -0.389890016843    0.000060262499
 O   -2.573029985135   -1.023993330684    0.000403629603
 N   -0.261001275438   -0.973360072975    0.000477165821
 H   -0.251185478315   -1.991645184841    0.000449861726
 C    1.000253013795   -0.337304586012    0.000494260657
 O    2.033945941863   -1.006568420428   -0.000251405007
 C    0.918774222035    1.123242475378   -0.000005636790
 H    1.842174360337    1.700302734244   -0.000346313567
 H   -2.379403019447    1.462975896384    0.000243665468
LI    4.705083480873    0.359086840954   -0.003406520650
