13

 N   -1.486161023641    0.997955971964    0.000457713849
 C   -0.312421440558    1.725328163474    0.000145234679
 H   -0.430138300621    2.810646622518    0.000029387120
 C   -1.531936996721   -0.395255819903    0.000072659280
 O   -2.583525165277   -1.029359133744    0.000416026384
 N   -0.271496455580   -0.978725876035    0.000489562602
 H   -0.261680658457   -1.997010987901    0.000462258507
 C    0.989757833653   -0.342670389072    0.000506657438
 O    2.023450761721   -1.011934223488   -0.000239008226
 C    0.908279041893    1.117876672318    0.000006759991
 H    1.831679180195    1.694936931184   -0.000333916786
 H   -2.389898199589    1.457610093324    0.000256062249
LI    4.872664136664    0.444764721986   -0.003604464912
