13

 N   -1.507151383926    0.987224365844    0.000482507411
 C   -0.333411800843    1.714596557354    0.000170028241
 H   -0.451128660906    2.799915016398    0.000054180682
 C   -1.552927357006   -0.405987426023    0.000097452842
 O   -2.604515525562   -1.040090739864    0.000440819946
 N   -0.292486815865   -0.989457482155    0.000514356164
 H   -0.282671018742   -2.007742594021    0.000487052069
 C    0.968767473368   -0.353401995192    0.000531451000
 O    2.002460401436   -1.022665829608   -0.000214214664
 C    0.887288681608    1.107145066198    0.000031553553
 H    1.810688819910    1.684205325064   -0.000309123224
 H   -2.410888559874    1.446878487204    0.000280855811
LI    5.207825448247    0.616120484050   -0.004000353435
