13

 N   -1.522894154140    0.979175661254    0.000501102582
 C   -0.349154571057    1.706547852764    0.000188623412
 H   -0.466871431120    2.791866311808    0.000072775853
 C   -1.568670127220   -0.414036130613    0.000116048013
 O   -2.620258295776   -1.048139444454    0.000459415117
 N   -0.308229586079   -0.997506186745    0.000532951335
 H   -0.298413788956   -2.015791298611    0.000505647240
 C    0.953024703154   -0.361450699782    0.000550046171
 O    1.986717631222   -1.030714534198   -0.000195619493
 C    0.871545911394    1.099096361608    0.000050148724
 H    1.794946049696    1.676156620474   -0.000290528053
 H   -2.426631330088    1.438829782614    0.000299450982
LI    5.459196431935    0.744637305598   -0.004297269828
