13

 N   -1.549132104496    0.965761153604    0.000532094535
 C   -0.375392521413    1.693133345114    0.000219615365
 H   -0.493109381476    2.778451804158    0.000103767806
 C   -1.594908077576   -0.427450638263    0.000147039966
 O   -2.646496246132   -1.061553952104    0.000490407070
 N   -0.334467536435   -1.010920694395    0.000563943288
 H   -0.324651739312   -2.029205806261    0.000536639193
 C    0.926786752798   -0.374865207432    0.000581038124
 O    1.960479680866   -1.044129041848   -0.000164627540
 C    0.845307961038    1.085681853958    0.000081140677
 H    1.768708099340    1.662742112824   -0.000259536100
 H   -2.452869280444    1.425415274964    0.000330442935
LI    5.878148071413    0.958832008178   -0.004792130483
