13

 N   -1.564874874710    0.957712449014    0.000550689706
 C   -0.391135291627    1.685084640524    0.000238210536
 H   -0.508852151690    2.770403099568    0.000122362977
 C   -1.610650847790   -0.435499342853    0.000165635137
 O   -2.662239016346   -1.069602656694    0.000509002241
 N   -0.350210306649   -1.018969398985    0.000582538459
 H   -0.340394509526   -2.037254510851    0.000555234364
 C    0.911043982584   -0.382913912022    0.000599633295
 O    1.944736910652   -1.052177746438   -0.000146032369
 C    0.829565190824    1.077633149368    0.000099735848
 H    1.752965329126    1.654693408234   -0.000240940929
 H   -2.468612050658    1.417366570374    0.000349038106
LI    6.129519055101    1.087348829726   -0.005089046876
