13

 N   -1.627845955565    0.925517630653    0.000625070392
 C   -0.454106372482    1.652889822163    0.000312591222
 H   -0.571823232545    2.738208281207    0.000196743663
 C   -1.673621928645   -0.467694161214    0.000240015823
 O   -2.725210097201   -1.101797475055    0.000583382927
 N   -0.413181387504   -1.051164217346    0.000656919145
 H   -0.403365590381   -2.069449329212    0.000629615050
 C    0.848072901729   -0.415108730383    0.000674013981
 O    1.881765829797   -1.084372564799   -0.000071651683
 C    0.766594109969    1.045438331007    0.000174116534
 H    1.689994248271    1.622498589873   -0.000166560243
 H   -2.531583131513    1.385171752013    0.000423418792
LI    7.135002989850    1.601416115918   -0.006276712447
