13

 N   -1.638341135707    0.920151827593    0.000637467173
 C   -0.464601552624    1.647524019103    0.000324988003
 H   -0.582318412687    2.732842478147    0.000209140444
 C   -1.684117108787   -0.473059964274    0.000252412604
 O   -2.735705277343   -1.107163278115    0.000595779708
 N   -0.423676567646   -1.056530020406    0.000669315926
 H   -0.413860770523   -2.074815132272    0.000642011831
 C    0.837577721587   -0.420474533443    0.000686410762
 O    1.871270649655   -1.089738367859   -0.000059254902
 C    0.756098929827    1.040072527947    0.000186513315
 H    1.679499068129    1.617132786813   -0.000154163462
 H   -2.542078311655    1.379805948953    0.000435815573
LI    7.302583645641    1.687093996950   -0.006474656709
