13

 N   -1.643588725778    0.917468926063    0.000643665563
 C   -0.469849142695    1.644841117573    0.000331186393
 H   -0.587566002758    2.730159576617    0.000215338834
 C   -1.689364698858   -0.475742865804    0.000258610994
 O   -2.740952867414   -1.109846179645    0.000601978098
 N   -0.428924157717   -1.059212921936    0.000675514316
 H   -0.419108360594   -2.077498033802    0.000648210221
 C    0.832330131516   -0.423157434973    0.000692609152
 O    1.866023059584   -1.092421269389   -0.000053056512
 C    0.750851339756    1.037389626417    0.000192711705
 H    1.674251478058    1.614449885283   -0.000147965072
 H   -2.547325901726    1.377123047423    0.000442013963
LI    7.386373973537    1.729932937466   -0.006573628840
