13

 N   -1.648836315850    0.914786024533    0.000649863954
 C   -0.475096732767    1.642158216043    0.000337384784
 H   -0.592813592830    2.727476675087    0.000221537225
 C   -1.694612288930   -0.478425767334    0.000264809385
 O   -2.746200457486   -1.112529081175    0.000608176489
 N   -0.434171747789   -1.061895823466    0.000681712707
 H   -0.424355950666   -2.080180935332    0.000654408612
 C    0.827082541444   -0.425840336503    0.000698807543
 O    1.860775469512   -1.095104170919   -0.000046858121
 C    0.745603749684    1.034706724887    0.000198910096
 H    1.669003887986    1.611766983753   -0.000141766681
 H   -2.552573491798    1.374440145893    0.000448212354
LI    7.470164301433    1.772771877982   -0.006672600971
