13

 N   -1.654083905921    0.912103123003    0.000656062344
 C   -0.480344322838    1.639475314513    0.000343583174
 H   -0.598061182901    2.724793773557    0.000227735615
 C   -1.699859879001   -0.481108668864    0.000271007775
 O   -2.751448047557   -1.115211982705    0.000614374879
 N   -0.439419337860   -1.064578724996    0.000687911097
 H   -0.429603540737   -2.082863836862    0.000660607002
 C    0.821834951373   -0.428523238033    0.000705005933
 O    1.855527879441   -1.097787072449   -0.000040659731
 C    0.740356159613    1.032023823357    0.000205108486
 H    1.663756297915    1.609084082223   -0.000135568291
 H   -2.557821081869    1.371757244363    0.000454410744
LI    7.553954629328    1.815610818498   -0.006771573101
