13

 N   -1.659331495992    0.909420221473    0.000662260735
 C   -0.485591912909    1.636792412983    0.000349781565
 H   -0.603308772972    2.722110872027    0.000233934006
 C   -1.705107469072   -0.483791570394    0.000277206166
 O   -2.756695637628   -1.117894884235    0.000620573270
 N   -0.444666927931   -1.067261626526    0.000694109488
 H   -0.434851130808   -2.085546738392    0.000666805393
 C    0.816587361302   -0.431206139563    0.000711204324
 O    1.850280289370   -1.100469973979   -0.000034461340
 C    0.735108569542    1.029340921827    0.000211306877
 H    1.658508707844    1.606401180693   -0.000129369900
 H   -2.563068671940    1.369074342833    0.000460609135
LI    7.637744957224    1.858449759014   -0.006870545232
