13

 N   -1.664579086063    0.906737319943    0.000668459125
 C   -0.490839502980    1.634109511453    0.000355979955
 H   -0.608556363043    2.719427970497    0.000240132396
 C   -1.710355059143   -0.486474471924    0.000283404556
 O   -2.761943227699   -1.120577785765    0.000626771660
 N   -0.449914518002   -1.069944528056    0.000700307878
 H   -0.440098720879   -2.088229639922    0.000673003783
 C    0.811339771231   -0.433889041093    0.000717402714
 O    1.845032699299   -1.103152875509   -0.000028262950
 C    0.729860979471    1.026658020297    0.000217505267
 H    1.653261117773    1.603718279163   -0.000123171510
 H   -2.568316262011    1.366391441303    0.000466807525
LI    7.721535285120    1.901288699530   -0.006969517363
