13

 N   -1.680321856277    0.898688615353    0.000687054297
 C   -0.506582273194    1.626060806863    0.000374575127
 H   -0.624299133257    2.711379265907    0.000258727568
 C   -1.726097829357   -0.494523176514    0.000301999728
 O   -2.777685997913   -1.128626490355    0.000645366832
 N   -0.465657288216   -1.077993232646    0.000718903050
 H   -0.455841491093   -2.096278344512    0.000691598955
 C    0.795597001017   -0.441937745683    0.000735997886
 O    1.829289929085   -1.111201580099   -0.000009667778
 C    0.714118209257    1.018609315707    0.000236100439
 H    1.637518347559    1.595669574573   -0.000104576338
 H   -2.584059032225    1.358342736713    0.000485402697
LI    7.972906268807    2.029805521078   -0.007266433756
