13

 N   -1.685569446348    0.896005713823    0.000693252687
 C   -0.511829863265    1.623377905333    0.000380773517
 H   -0.629546723328    2.708696364377    0.000264925958
 C   -1.731345419428   -0.497206078044    0.000308198118
 O   -2.782933587984   -1.131309391885    0.000651565222
 N   -0.470904878287   -1.080676134176    0.000725101440
 H   -0.461089081164   -2.098961246042    0.000697797345
 C    0.790349410946   -0.444620647213    0.000742196276
 O    1.824042339014   -1.113884481629   -0.000003469388
 C    0.708870619186    1.015926414177    0.000242298829
 H    1.632270757488    1.592986673043   -0.000098377948
 H   -2.589306622296    1.355659835183    0.000491601087
LI    8.056696596703    2.072644461594   -0.007365405887
