13

 N   -1.690817036419    0.893322812293    0.000699451078
 C   -0.517077453336    1.620695003803    0.000386971908
 H   -0.634794313399    2.706013462847    0.000271124349
 C   -1.736593009499   -0.499888979574    0.000314396509
 O   -2.788181178055   -1.133992293415    0.000657763613
 N   -0.476152468358   -1.083359035706    0.000731299831
 H   -0.466336671235   -2.101644147572    0.000703995736
 C    0.785101820875   -0.447303548743    0.000748394667
 O    1.818794748943   -1.116567383159    0.000002729003
 C    0.703623029115    1.013243512647    0.000248497220
 H    1.627023167417    1.590303771513   -0.000092179557
 H   -2.594554212367    1.352976933653    0.000497799478
LI    8.140486924599    2.115483402110   -0.007464378018
