13

 N   -1.717054986776    0.879908304642    0.000730443030
 C   -0.543315403693    1.607280496152    0.000417963860
 H   -0.661032263756    2.692598955196    0.000302116301
 C   -1.762830959856   -0.513303487225    0.000345388461
 O   -2.814419128412   -1.147406801066    0.000688755565
 N   -0.502390418715   -1.096773543357    0.000762291783
 H   -0.492574621592   -2.115058655223    0.000734987688
 C    0.758863870518   -0.460718056394    0.000779386619
 O    1.792556798586   -1.129981890810    0.000033720955
 C    0.677385078758    0.999829004996    0.000279489172
 H    1.600785217060    1.576889263862   -0.000061187605
 H   -2.620792162724    1.339562426002    0.000528791430
LI    8.559438564077    2.329678104690   -0.007959238673
