13

 N   -1.722302576847    0.877225403112    0.000736641421
 C   -0.548562993764    1.604597594622    0.000424162251
 H   -0.666279853827    2.689916053666    0.000308314692
 C   -1.768078549927   -0.515986388755    0.000351586852
 O   -2.819666718483   -1.150089702596    0.000694953956
 N   -0.507638008786   -1.099456444887    0.000768490174
 H   -0.497822211663   -2.117741556753    0.000741186079
 C    0.753616280447   -0.463400957924    0.000785585010
 O    1.787309208515   -1.132664792340    0.000039919346
 C    0.672137488687    0.997146103466    0.000285687563
 H    1.595537626989    1.574206362332   -0.000054989214
 H   -2.626039752795    1.336879524472    0.000534989821
LI    8.643228891973    2.372517045206   -0.008058210804
