13

 N   -1.727550166918    0.874542501582    0.000742839811
 C   -0.553810583835    1.601914693092    0.000430360641
 H   -0.671527443898    2.687233152136    0.000314513082
 C   -1.773326139998   -0.518669290285    0.000357785242
 O   -2.824914308554   -1.152772604126    0.000701152346
 N   -0.512885598857   -1.102139346417    0.000774688564
 H   -0.503069801734   -2.120424458283    0.000747384469
 C    0.748368690376   -0.466083859454    0.000791783400
 O    1.782061618444   -1.135347693870    0.000046117736
 C    0.666889898616    0.994463201936    0.000291885953
 H    1.590290036918    1.571523460802   -0.000048790824
 H   -2.631287342866    1.334196622942    0.000541188211
LI    8.727019219869    2.415355985722   -0.008157182934
