13

 N   -1.738045347061    0.869176698522    0.000755236592
 C   -0.564305763978    1.596548890032    0.000442757422
 H   -0.682022624041    2.681867349076    0.000326909863
 C   -1.783821320141   -0.524035093345    0.000370182023
 O   -2.835409488697   -1.158138407186    0.000713549127
 N   -0.523380779000   -1.107505149477    0.000787085345
 H   -0.513564981877   -2.125790261343    0.000759781250
 C    0.737873510233   -0.471449662514    0.000804180181
 O    1.771566438301   -1.140713496930    0.000058514517
 C    0.656394718473    0.989097398876    0.000304282734
 H    1.579794856775    1.566157657742   -0.000036394043
 H   -2.641782523009    1.328830819882    0.000553584992
LI    8.894599875660    2.501033866754   -0.008355127196
