13

 N   -1.753788117274    0.861127993932    0.000773831764
 C   -0.580048534191    1.588500185442    0.000461352594
 H   -0.697765394254    2.673818644486    0.000345505035
 C   -1.799564090354   -0.532083797935    0.000388777195
 O   -2.851152258910   -1.166187111776    0.000732144299
 N   -0.539123549213   -1.115553854067    0.000805680517
 H   -0.529307752090   -2.133838965933    0.000778376422
 C    0.722130740020   -0.479498367104    0.000822775353
 O    1.755823668088   -1.148762201520    0.000077109689
 C    0.640651948260    0.981048694286    0.000322877906
 H    1.564052086562    1.558108953152   -0.000017798871
 H   -2.657525293222    1.320782115292    0.000572180164
LI    9.145970859348    2.629550688302   -0.008652043589
