13

 N   -1.806264017987    0.834298978632    0.000835815669
 C   -0.632524434904    1.561671170142    0.000523336499
 H   -0.750241294967    2.646989629186    0.000407488940
 C   -1.852039991067   -0.558912813235    0.000450761100
 O   -2.903628159623   -1.193016127076    0.000794128204
 N   -0.591599449926   -1.142382869367    0.000867664422
 H   -0.581783652803   -2.160667981233    0.000840360327
 C    0.669654839307   -0.506327382404    0.000884759258
 O    1.703347767375   -1.175591216820    0.000139093594
 C    0.588176047547    0.954219678986    0.000384861811
 H    1.511576185849    1.531279937852    0.000044185034
 H   -2.710001193935    1.293953099992    0.000634164069
LI    9.983874138305    3.057940093462   -0.009641764898
