13

 N   -1.811511608058    0.831616077102    0.000842014059
 C   -0.637772024975    1.558988268612    0.000529534889
 H   -0.755488885038    2.644306727656    0.000413687330
 C   -1.857287581138   -0.561595714765    0.000456959490
 O   -2.908875749694   -1.195699028606    0.000800326594
 N   -0.596847039997   -1.145065770897    0.000873862812
 H   -0.587031242874   -2.163350882763    0.000846558717
 C    0.664407249236   -0.509010283934    0.000890957648
 O    1.698100177304   -1.178274118350    0.000145291984
 C    0.582928457476    0.951536777456    0.000391060201
 H    1.506328595778    1.528597036322    0.000050383424
 H   -2.715248784006    1.291270198462    0.000640362459
LI   10.067664466201    3.100779033978   -0.009740737029
