13

 N   -1.837749558414    0.818201569452    0.000873006012
 C   -0.664009975331    1.545573760962    0.000560526842
 H   -0.781726835394    2.630892220006    0.000444679283
 C   -1.883525531494   -0.575010222415    0.000487951443
 O   -2.935113700050   -1.209113536256    0.000831318547
 N   -0.623084990353   -1.158480278547    0.000904854765
 H   -0.613269193230   -2.176765390413    0.000877550670
 C    0.638169298880   -0.522424791584    0.000921949601
 O    1.671862226948   -1.191688626000    0.000176283937
 C    0.556690507120    0.938122269806    0.000422052154
 H    1.480090645422    1.515182528672    0.000081375377
 H   -2.741486734362    1.277855690812    0.000671354412
LI   10.486616105680    3.314973736558   -0.010235597684
