10

 H    1.760475052978    1.264036095667   -0.901476000000
 H    0.558261052978    2.239283095667    0.000000000000
 H    1.760475052978    1.264036095667    0.901476000000
 C    1.129626052978    1.299564095667    0.000000000000
 S   -0.068248947022   -0.072973904333    0.000000000000
 C    1.129626052978   -1.445511904333    0.000000000000
 H    1.760475052978   -1.409983904333    0.901476000000
 H    0.558261052978   -2.385230904333    0.000000000000
 H    1.760475052978   -1.409983904333   -0.901476000000
NA   -1.441999130506    0.196860180571    0.000000000000
