10

 H    1.787011972218    1.258823673928   -0.901476000000
 H    0.584797972218    2.234070673928    0.000000000000
 H    1.787011972218    1.258823673928    0.901476000000
 C    1.156162972218    1.294351673928    0.000000000000
 S   -0.041712027782   -0.078186326072    0.000000000000
 C    1.156162972218   -1.450724326072    0.000000000000
 H    1.787011972218   -1.415196326072    0.901476000000
 H    0.584797972218   -2.390443326072    0.000000000000
 H    1.787011972218   -1.415196326072   -0.901476000000
NA   -1.513587224373    0.210921622041    0.000000000000
