10

 H    1.813548891457    1.253611252190   -0.901476000000
 H    0.611334891457    2.228858252190    0.000000000000
 H    1.813548891457    1.253611252190    0.901476000000
 C    1.182699891457    1.289139252190    0.000000000000
 S   -0.015175108543   -0.083398747810    0.000000000000
 C    1.182699891457   -1.455936747810    0.000000000000
 H    1.813548891457   -1.420408747810    0.901476000000
 H    0.611334891457   -2.395655747810    0.000000000000
 H    1.813548891457   -1.420408747810   -0.901476000000
NA   -1.585175318240    0.224983063510    0.000000000000
