10

 H    1.999307326132    1.217124300024   -0.901476000000
 H    0.797093326132    2.192371300024    0.000000000000
 H    1.999307326132    1.217124300024    0.901476000000
 C    1.368458326132    1.252652300024    0.000000000000
 S    0.170583326132   -0.119885699976    0.000000000000
 C    1.368458326132   -1.492423699976    0.000000000000
 H    1.999307326132   -1.456895699976    0.901476000000
 H    0.797093326132   -2.432142699976    0.000000000000
 H    1.999307326132   -1.456895699976   -0.901476000000
NA   -2.086291975307    0.323413153796    0.000000000000
