10

 H    2.078918083850    1.201487034809   -0.901476000000
 H    0.876704083850    2.176734034809    0.000000000000
 H    2.078918083850    1.201487034809    0.901476000000
 C    1.448069083850    1.237015034809    0.000000000000
 S    0.250194083850   -0.135522965191    0.000000000000
 C    1.448069083850   -1.508060965191    0.000000000000
 H    2.078918083850   -1.472532965191    0.901476000000
 H    0.876704083850   -2.447779965191    0.000000000000
 H    2.078918083850   -1.472532965191   -0.901476000000
NA   -2.301056256907    0.365597478204    0.000000000000
