10

 H    2.131991922328    1.191062191333   -0.901476000000
 H    0.929777922328    2.166309191333    0.000000000000
 H    2.131991922328    1.191062191333    0.901476000000
 C    1.501142922328    1.226590191333    0.000000000000
 S    0.303267922328   -0.145947808667    0.000000000000
 C    1.501142922328   -1.518485808667    0.000000000000
 H    2.131991922328   -1.482957808667    0.901476000000
 H    0.929777922328   -2.458204808667    0.000000000000
 H    2.131991922328   -1.482957808667   -0.901476000000
NA   -2.444232444641    0.393720361143    0.000000000000
