10

 H    2.158528841567    1.185849769595   -0.901476000000
 H    0.956314841567    2.161096769595    0.000000000000
 H    2.158528841567    1.185849769595    0.901476000000
 C    1.527679841567    1.221377769595    0.000000000000
 S    0.329804841567   -0.151160230405    0.000000000000
 C    1.527679841567   -1.523698230405    0.000000000000
 H    2.158528841567   -1.488170230405    0.901476000000
 H    0.956314841567   -2.463417230405    0.000000000000
 H    2.158528841567   -1.488170230405   -0.901476000000
NA   -2.515820538508    0.407781802612    0.000000000000
