10

 H    2.291213437764    1.159787660904   -0.901476000000
 H    1.088999437764    2.135034660904    0.000000000000
 H    2.291213437764    1.159787660904    0.901476000000
 C    1.660364437764    1.195315660904    0.000000000000
 S    0.462489437764   -0.177222339096    0.000000000000
 C    1.660364437764   -1.549760339096    0.000000000000
 H    2.291213437764   -1.514232339096    0.901476000000
 H    1.088999437764   -2.489479339096    0.000000000000
 H    2.291213437764   -1.514232339096   -0.901476000000
NA   -2.873761007841    0.478089009959    0.000000000000
