10

 H    2.370824195481    1.144150395690   -0.901476000000
 H    1.168610195481    2.119397395690    0.000000000000
 H    2.370824195481    1.144150395690    0.901476000000
 C    1.739975195481    1.179678395690    0.000000000000
 S    0.542100195481   -0.192859604310    0.000000000000
 C    1.739975195481   -1.565397604310    0.000000000000
 H    2.370824195481   -1.529869604310    0.901476000000
 H    1.168610195481   -2.505116604310    0.000000000000
 H    2.370824195481   -1.529869604310   -0.901476000000
NA   -3.088525289442    0.520273334367    0.000000000000
