10

 H    2.556582630156    1.107663443523   -0.901476000000
 H    1.354368630156    2.082910443523    0.000000000000
 H    2.556582630156    1.107663443523    0.901476000000
 C    1.925733630156    1.143191443523    0.000000000000
 S    0.727858630156   -0.229346556477    0.000000000000
 C    1.925733630156   -1.601884556477    0.000000000000
 H    2.556582630156   -1.566356556477    0.901476000000
 H    1.354368630156   -2.541603556477    0.000000000000
 H    2.556582630156   -1.566356556477   -0.901476000000
NA   -3.589641946509    0.618703424653    0.000000000000
