10

 H    2.583119549396    1.102451021785   -0.901476000000
 H    1.380905549396    2.077698021785    0.000000000000
 H    2.583119549396    1.102451021785    0.901476000000
 C    1.952270549396    1.137979021785    0.000000000000
 S    0.754395549396   -0.234558978215    0.000000000000
 C    1.952270549396   -1.607096978215    0.000000000000
 H    2.583119549396   -1.571568978215    0.901476000000
 H    1.380905549396   -2.546815978215    0.000000000000
 H    2.583119549396   -1.571568978215   -0.901476000000
NA   -3.661230040376    0.632764866122    0.000000000000
