10

 H    2.662730307113    1.086813756571   -0.901476000000
 H    1.460516307113    2.062060756571    0.000000000000
 H    2.662730307113    1.086813756571    0.901476000000
 C    2.031881307113    1.122341756571    0.000000000000
 S    0.834006307113   -0.250196243429    0.000000000000
 C    2.031881307113   -1.622734243429    0.000000000000
 H    2.662730307113   -1.587206243429    0.901476000000
 H    1.460516307113   -2.562453243429    0.000000000000
 H    2.662730307113   -1.587206243429   -0.901476000000
NA   -3.875994321976    0.674949190530    0.000000000000
