10

 H    2.795414903310    1.060751647880   -0.901476000000
 H    1.593200903310    2.035998647880    0.000000000000
 H    2.795414903310    1.060751647880    0.901476000000
 C    2.164565903310    1.096279647880    0.000000000000
 S    0.966690903310   -0.276258352120    0.000000000000
 C    2.164565903310   -1.648796352120    0.000000000000
 H    2.795414903310   -1.613268352120    0.901476000000
 H    1.593200903310   -2.588515352120    0.000000000000
 H    2.795414903310   -1.613268352120   -0.901476000000
NA   -4.233934791310    0.745256397877    0.000000000000
