10

 H    2.821951822549    1.055539226142   -0.901476000000
 H    1.619737822549    2.030786226142    0.000000000000
 H    2.821951822549    1.055539226142    0.901476000000
 C    2.191102822549    1.091067226142    0.000000000000
 S    0.993227822549   -0.281470773858    0.000000000000
 C    2.191102822549   -1.654008773858    0.000000000000
 H    2.821951822549   -1.618480773858    0.901476000000
 H    1.619737822549   -2.593727773858    0.000000000000
 H    2.821951822549   -1.618480773858   -0.901476000000
NA   -4.305522885177    0.759317839346    0.000000000000
