10

 H    2.875025661028    1.045114382666   -0.901476000000
 H    1.672811661028    2.020361382666    0.000000000000
 H    2.875025661028    1.045114382666    0.901476000000
 C    2.244176661028    1.080642382666    0.000000000000
 S    1.046301661028   -0.291895617334    0.000000000000
 C    2.244176661028   -1.664433617334    0.000000000000
 H    2.875025661028   -1.628905617334    0.901476000000
 H    1.672811661028   -2.604152617334    0.000000000000
 H    2.875025661028   -1.628905617334   -0.901476000000
NA   -4.448699072910    0.787440722285    0.000000000000
