10

 H    2.901562580267    1.039901960928   -0.901476000000
 H    1.699348580267    2.015148960928    0.000000000000
 H    2.901562580267    1.039901960928    0.901476000000
 C    2.270713580267    1.075429960928    0.000000000000
 S    1.072838580267   -0.297108039072    0.000000000000
 C    2.270713580267   -1.669646039072    0.000000000000
 H    2.901562580267   -1.634118039072    0.901476000000
 H    1.699348580267   -2.609365039072    0.000000000000
 H    2.901562580267   -1.634118039072   -0.901476000000
NA   -4.520287166777    0.801502163755    0.000000000000
