10

 H    2.928099499506    1.034689539190   -0.901476000000
 H    1.725885499506    2.009936539190    0.000000000000
 H    2.928099499506    1.034689539190    0.901476000000
 C    2.297250499506    1.070217539190    0.000000000000
 S    1.099375499506   -0.302320460810    0.000000000000
 C    2.297250499506   -1.674858460810    0.000000000000
 H    2.928099499506   -1.639330460810    0.901476000000
 H    1.725885499506   -2.614577460810    0.000000000000
 H    2.928099499506   -1.639330460810   -0.901476000000
NA   -4.591875260644    0.815563605224    0.000000000000
