10

 H    2.954636418745    1.029477117452   -0.901476000000
 H    1.752422418745    2.004724117452    0.000000000000
 H    2.954636418745    1.029477117452    0.901476000000
 C    2.323787418745    1.065005117452    0.000000000000
 S    1.125912418745   -0.307532882548    0.000000000000
 C    2.323787418745   -1.680070882548    0.000000000000
 H    2.954636418745   -1.644542882548    0.901476000000
 H    1.752422418745   -2.619789882548    0.000000000000
 H    2.954636418745   -1.644542882548   -0.901476000000
NA   -4.663463354511    0.829625046693    0.000000000000
