10

 H    2.981173337985    1.024264695714   -0.901476000000
 H    1.778959337985    1.999511695714    0.000000000000
 H    2.981173337985    1.024264695714    0.901476000000
 C    2.350324337985    1.059792695714    0.000000000000
 S    1.152449337985   -0.312745304286    0.000000000000
 C    2.350324337985   -1.685283304286    0.000000000000
 H    2.981173337985   -1.649755304286    0.901476000000
 H    1.778959337985   -2.625002304286    0.000000000000
 H    2.981173337985   -1.649755304286   -0.901476000000
NA   -4.735051448377    0.843686488163    0.000000000000
