10

 H    3.007710257224    1.019052273976   -0.901476000000
 H    1.805496257224    1.994299273976    0.000000000000
 H    3.007710257224    1.019052273976    0.901476000000
 C    2.376861257224    1.054580273976    0.000000000000
 S    1.178986257224   -0.317957726024    0.000000000000
 C    2.376861257224   -1.690495726024    0.000000000000
 H    3.007710257224   -1.654967726024    0.901476000000
 H    1.805496257224   -2.630214726024    0.000000000000
 H    3.007710257224   -1.654967726024   -0.901476000000
NA   -4.806639542244    0.857747929632    0.000000000000
