10

 H    3.060784095702    1.008627430499   -0.901476000000
 H    1.858570095702    1.983874430499    0.000000000000
 H    3.060784095702    1.008627430499    0.901476000000
 C    2.429935095702    1.044155430499    0.000000000000
 S    1.232060095702   -0.328382569501    0.000000000000
 C    2.429935095702   -1.700920569501    0.000000000000
 H    3.060784095702   -1.665392569501    0.901476000000
 H    1.858570095702   -2.640639569501    0.000000000000
 H    3.060784095702   -1.665392569501   -0.901476000000
NA   -4.949815729978    0.885870812571    0.000000000000
