10

 H    3.087321014942    1.003415008761   -0.901476000000
 H    1.885107014942    1.978662008761    0.000000000000
 H    3.087321014942    1.003415008761    0.901476000000
 C    2.456472014942    1.038943008761    0.000000000000
 S    1.258597014942   -0.333594991239    0.000000000000
 C    2.456472014942   -1.706132991239    0.000000000000
 H    3.087321014942   -1.670604991239    0.901476000000
 H    1.885107014942   -2.645851991239    0.000000000000
 H    3.087321014942   -1.670604991239   -0.901476000000
NA   -5.021403823844    0.899932254040    0.000000000000
