10

 H    3.113857934181    0.998202587023   -0.901476000000
 H    1.911643934181    1.973449587023    0.000000000000
 H    3.113857934181    0.998202587023    0.901476000000
 C    2.483008934181    1.033730587023    0.000000000000
 S    1.285133934181   -0.338807412977    0.000000000000
 C    2.483008934181   -1.711345412977    0.000000000000
 H    3.113857934181   -1.675817412977    0.901476000000
 H    1.911643934181   -2.651064412977    0.000000000000
 H    3.113857934181   -1.675817412977   -0.901476000000
NA   -5.092991917711    0.913993695510    0.000000000000
