10

 H    3.193468691899    0.982565321809   -0.901476000000
 H    1.991254691899    1.957812321809    0.000000000000
 H    3.193468691899    0.982565321809    0.901476000000
 C    2.562619691899    1.018093321809    0.000000000000
 S    1.364744691899   -0.354444678191    0.000000000000
 C    2.562619691899   -1.726982678191    0.000000000000
 H    3.193468691899   -1.691454678191    0.901476000000
 H    1.991254691899   -2.666701678191    0.000000000000
 H    3.193468691899   -1.691454678191   -0.901476000000
NA   -5.307756199312    0.956178019918    0.000000000000
