10

 H    3.405764045813    0.940865947904   -0.901476000000
 H    2.203550045813    1.916112947904    0.000000000000
 H    3.405764045813    0.940865947904    0.901476000000
 C    2.774915045813    0.976393947904    0.000000000000
 S    1.577040045813   -0.396144052096    0.000000000000
 C    2.774915045813   -1.768682052096    0.000000000000
 H    3.405764045813   -1.733154052096    0.901476000000
 H    2.203550045813   -2.708401052096    0.000000000000
 H    3.405764045813   -1.733154052096   -0.901476000000
NA   -5.880460950246    1.068669551673    0.000000000000
