10

 H    3.485374803531    0.925228682690   -0.901476000000
 H    2.283160803531    1.900475682690    0.000000000000
 H    3.485374803531    0.925228682690    0.901476000000
 C    2.854525803531    0.960756682690    0.000000000000
 S    1.656650803531   -0.411781317310    0.000000000000
 C    2.854525803531   -1.784319317310    0.000000000000
 H    3.485374803531   -1.748791317310    0.901476000000
 H    2.283160803531   -2.724038317310    0.000000000000
 H    3.485374803531   -1.748791317310   -0.901476000000
NA   -6.095225231846    1.110853876081    0.000000000000
