10

 H    3.511911722770    0.920016260952   -0.901476000000
 H    2.309697722770    1.895263260952    0.000000000000
 H    3.511911722770    0.920016260952    0.901476000000
 C    2.881062722770    0.955544260952    0.000000000000
 S    1.683187722770   -0.416993739048    0.000000000000
 C    2.881062722770   -1.789531739048    0.000000000000
 H    3.511911722770   -1.754003739048    0.901476000000
 H    2.309697722770   -2.729250739048    0.000000000000
 H    3.511911722770   -1.754003739048   -0.901476000000
NA   -6.166813325713    1.124915317550    0.000000000000
