10

 H    3.671133238206    0.888741730523   -0.901476000000
 H    2.468919238206    1.863988730523    0.000000000000
 H    3.671133238206    0.888741730523    0.901476000000
 C    3.040284238206    0.924269730523    0.000000000000
 S    1.842409238206   -0.448268269477    0.000000000000
 C    3.040284238206   -1.820806269477    0.000000000000
 H    3.671133238206   -1.785278269477    0.901476000000
 H    2.468919238206   -2.760525269477    0.000000000000
 H    3.671133238206   -1.785278269477   -0.901476000000
NA   -6.596341888913    1.209283966367    0.000000000000
