10

 H    3.883428592120    0.847042356618   -0.901476000000
 H    2.681214592120    1.822289356618    0.000000000000
 H    3.883428592120    0.847042356618    0.901476000000
 C    3.252579592120    0.882570356618    0.000000000000
 S    2.054704592120   -0.489967643382    0.000000000000
 C    3.252579592120   -1.862505643382    0.000000000000
 H    3.883428592120   -1.826977643382    0.901476000000
 H    2.681214592120   -2.802224643382    0.000000000000
 H    3.883428592120   -1.826977643382   -0.901476000000
NA   -7.169046639847    1.321775498122    0.000000000000
