10

 H    3.909965511359    0.841829934880   -0.901476000000
 H    2.707751511359    1.817076934880    0.000000000000
 H    3.909965511359    0.841829934880    0.901476000000
 C    3.279116511359    0.877357934880    0.000000000000
 S    2.081241511359   -0.495180065120    0.000000000000
 C    3.279116511359   -1.867718065120    0.000000000000
 H    3.909965511359   -1.832190065120    0.901476000000
 H    2.707751511359   -2.807437065120    0.000000000000
 H    3.909965511359   -1.832190065120   -0.901476000000
NA   -7.240634733714    1.335836939591    0.000000000000
