7

 C    0.646771791783    1.772742998366    0.000000000000
 O    0.646771791783    0.337856998366    0.000000000000
 H    1.565781791783    0.041055998366    0.000000000000
 H   -0.406547208217    2.080731998366    0.000000000000
 H    1.135437791783    2.183675998366    0.899440000000
 H    1.135437791783    2.183675998366   -0.899440000000
CS   -0.162245202592   -0.249928253927    0.000000000000
