7

 C    0.711964105319    1.820107986649    0.000000000000
 O    0.711964105319    0.385221986649    0.000000000000
 H    1.630974105319    0.088420986649    0.000000000000
 H   -0.341354894681    2.128096986649    0.000000000000
 H    1.200630105319    2.231040986649    0.899440000000
 H    1.200630105319    2.231040986649   -0.899440000000
CS   -0.177954588494   -0.261341790873    0.000000000000
