7

 C    0.777156418855    1.867472974932    0.000000000000
 O    0.777156418855    0.432586974932    0.000000000000
 H    1.696166418855    0.135785974932    0.000000000000
 H   -0.276162581145    2.175461974932    0.000000000000
 H    1.265822418855    2.278405974932    0.899440000000
 H    1.265822418855    2.278405974932   -0.899440000000
CS   -0.193663974395   -0.272755327819    0.000000000000
