7

 C    0.907541045927    1.962202951498    0.000000000000
 O    0.907541045927    0.527316951498    0.000000000000
 H    1.826551045927    0.230515951498    0.000000000000
 H   -0.145777954073    2.270191951498    0.000000000000
 H    1.396207045927    2.373135951498    0.899440000000
 H    1.396207045927    2.373135951498   -0.899440000000
CS   -0.225082746198   -0.295582401711    0.000000000000
