7

 C    0.972733359463    2.009567939781    0.000000000000
 O    0.972733359463    0.574681939781    0.000000000000
 H    1.891743359463    0.277880939781    0.000000000000
 H   -0.080585640537    2.317556939781    0.000000000000
 H    1.461399359463    2.420500939781    0.899440000000
 H    1.461399359463    2.420500939781   -0.899440000000
CS   -0.240792132099   -0.306995938658    0.000000000000
