7

 C    1.037925672999    2.056932928064    0.000000000000
 O    1.037925672999    0.622046928064    0.000000000000
 H    1.956935672999    0.325245928064    0.000000000000
 H   -0.015393327001    2.364921928064    0.000000000000
 H    1.526591672999    2.467865928064    0.899440000000
 H    1.526591672999    2.467865928064   -0.899440000000
CS   -0.256501518001   -0.318409475604    0.000000000000
