7

 C    1.103117986535    2.104297916347    0.000000000000
 O    1.103117986535    0.669411916347    0.000000000000
 H    2.022127986535    0.372610916347    0.000000000000
 H    0.049798986535    2.412286916347    0.000000000000
 H    1.591783986535    2.515230916347    0.899440000000
 H    1.591783986535    2.515230916347   -0.899440000000
CS   -0.272210903902   -0.329823012550    0.000000000000
