7

 C    1.168310300071    2.151662904630    0.000000000000
 O    1.168310300071    0.716776904630    0.000000000000
 H    2.087320300071    0.419975904630    0.000000000000
 H    0.114991300071    2.459651904630    0.000000000000
 H    1.656976300071    2.562595904630    0.899440000000
 H    1.656976300071    2.562595904630   -0.899440000000
CS   -0.287920289804   -0.341236549496    0.000000000000
