7

 C    1.363887240679    2.293757869479    0.000000000000
 O    1.363887240679    0.858871869479    0.000000000000
 H    2.282897240679    0.562070869479    0.000000000000
 H    0.310568240679    2.601746869479    0.000000000000
 H    1.852553240679    2.704690869479    0.899440000000
 H    1.852553240679    2.704690869479   -0.899440000000
CS   -0.335048447508   -0.375477160335    0.000000000000
