7

 C    1.429079554216    2.341122857762    0.000000000000
 O    1.429079554216    0.906236857762    0.000000000000
 H    2.348089554216    0.609435857762    0.000000000000
 H    0.375760554216    2.649111857762    0.000000000000
 H    1.917745554216    2.752055857762    0.899440000000
 H    1.917745554216    2.752055857762   -0.899440000000
CS   -0.350757833409   -0.386890697281    0.000000000000
