7

 C    1.494271867752    2.388487846045    0.000000000000
 O    1.494271867752    0.953601846045    0.000000000000
 H    2.413281867752    0.656800846045    0.000000000000
 H    0.440952867752    2.696476846045    0.000000000000
 H    1.982937867752    2.799420846045    0.899440000000
 H    1.982937867752    2.799420846045   -0.899440000000
CS   -0.366467219311   -0.398304234228    0.000000000000
