7

 C    1.559464181288    2.435852834328    0.000000000000
 O    1.559464181288    1.000966834328    0.000000000000
 H    2.478474181288    0.704165834328    0.000000000000
 H    0.506145181288    2.743841834328    0.000000000000
 H    2.048130181288    2.846785834328    0.899440000000
 H    2.048130181288    2.846785834328   -0.899440000000
CS   -0.382176605212   -0.409717771174    0.000000000000
