7

 C    1.689848808360    2.530582810894    0.000000000000
 O    1.689848808360    1.095696810894    0.000000000000
 H    2.608858808360    0.798895810894    0.000000000000
 H    0.636529808360    2.838571810894    0.000000000000
 H    2.178514808360    2.941515810894    0.899440000000
 H    2.178514808360    2.941515810894   -0.899440000000
CS   -0.413595377015   -0.432544845066    0.000000000000
