7

 C    2.341771943721    3.004232693724    0.000000000000
 O    2.341771943721    1.569346693724    0.000000000000
 H    3.260781943721    1.272545693724    0.000000000000
 H    1.288452943721    3.312221693724    0.000000000000
 H    2.830437943721    3.415165693724    0.899440000000
 H    2.830437943721    3.415165693724   -0.899440000000
CS   -0.570689236029   -0.546680214528    0.000000000000
