7

 C    2.472156570793    3.098962670290    0.000000000000
 O    2.472156570793    1.664076670290    0.000000000000
 H    3.391166570793    1.367275670290    0.000000000000
 H    1.418837570793    3.406951670290    0.000000000000
 H    2.960822570793    3.509895670290    0.899440000000
 H    2.960822570793    3.509895670290   -0.899440000000
CS   -0.602108007832   -0.569507288421    0.000000000000
