7

 C    2.732925824937    3.288422623423    0.000000000000
 O    2.732925824937    1.853536623423    0.000000000000
 H    3.651935824937    1.556735623423    0.000000000000
 H    1.679606824937    3.596411623423    0.000000000000
 H    3.221591824937    3.699355623423    0.899440000000
 H    3.221591824937    3.699355623423   -0.899440000000
CS   -0.664945551438   -0.615161436206    0.000000000000
