7

 C    2.863310452009    3.383152599989    0.000000000000
 O    2.863310452009    1.948266599989    0.000000000000
 H    3.782320452009    1.651465599989    0.000000000000
 H    1.809991452009    3.691141599989    0.000000000000
 H    3.351976452009    3.794085599989    0.899440000000
 H    3.351976452009    3.794085599989   -0.899440000000
CS   -0.696364323240   -0.637988510098    0.000000000000
