7

 C    2.928502765545    3.430517588272    0.000000000000
 O    2.928502765545    1.995631588272    0.000000000000
 H    3.847512765545    1.698830588272    0.000000000000
 H    1.875183765545    3.738506588272    0.000000000000
 H    3.417168765545    3.841450588272    0.899440000000
 H    3.417168765545    3.841450588272   -0.899440000000
CS   -0.712073709142   -0.649402047044    0.000000000000
