7

 C    2.993695079081    3.477882576555    0.000000000000
 O    2.993695079081    2.042996576555    0.000000000000
 H    3.912705079081    1.746195576555    0.000000000000
 H    1.940376079081    3.785871576555    0.000000000000
 H    3.482361079081    3.888815576555    0.899440000000
 H    3.482361079081    3.888815576555   -0.899440000000
CS   -0.727783095043   -0.660815583991    0.000000000000
