7

 C    3.058887392618    3.525247564838    0.000000000000
 O    3.058887392618    2.090361564838    0.000000000000
 H    3.977897392618    1.793560564838    0.000000000000
 H    2.005568392618    3.833236564838    0.000000000000
 H    3.547553392618    3.936180564838    0.899440000000
 H    3.547553392618    3.936180564838   -0.899440000000
CS   -0.743492480945   -0.672229120937    0.000000000000
