7

 C    3.189272019690    3.619977541404    0.000000000000
 O    3.189272019690    2.185091541404    0.000000000000
 H    4.108282019690    1.888290541404    0.000000000000
 H    2.135953019690    3.927966541404    0.000000000000
 H    3.677938019690    4.030910541404    0.899440000000
 H    3.677938019690    4.030910541404   -0.899440000000
CS   -0.774911252748   -0.695056194829    0.000000000000
