7

 C    3.319656646762    3.714707517970    0.000000000000
 O    3.319656646762    2.279821517970    0.000000000000
 H    4.238666646762    1.983020517970    0.000000000000
 H    2.266337646762    4.022696517970    0.000000000000
 H    3.808322646762    4.125640517970    0.899440000000
 H    3.808322646762    4.125640517970   -0.899440000000
CS   -0.806330024550   -0.717883268722    0.000000000000
