11

 H   -2.359337511089   -0.418259527125    0.586286662434
 H   -2.476371616479   -1.168358198849   -1.040781592620
 H   -2.359457881502    0.617540378834   -0.897294853907
 C   -2.039416148580   -0.340341037693   -0.462714310295
 S   -0.230515920562   -0.528365500810   -0.594134071803
 S    0.259981594755    1.169056893374    0.590924930670
 C    2.068881819967    0.980893748971    0.459703844812
 H    2.388804898806    0.023001300957    0.894347761853
 H    2.505837303417    1.808896882826    1.037791248179
 H    2.388921907209    1.058756757231   -0.589264915895
NA   -0.060233553574   -1.309603283547    0.006425202805
