11

 H   -2.376069958896   -0.341492797510    0.527273936129
 H   -2.493104064286   -1.091591469234   -1.099794318925
 H   -2.376190329309    0.694307108449   -0.956307580212
 C   -2.056148596387   -0.263574308078   -0.521727036600
 S   -0.247248368369   -0.451598771195   -0.653146798108
 S    0.243249146948    1.245823622989    0.531912204365
 C    2.052149372160    1.057660478586    0.400691118507
 H    2.372072450999    0.099768030572    0.835335035548
 H    2.489104855610    1.885663612441    0.978778521874
 H    2.372189459402    1.135523486846   -0.648277642200
NA    0.008175182113   -1.623455445300    0.247692113804
