11

 H   -2.379416448457   -0.326139451587    0.515471390868
 H   -2.496450553847   -1.076238123311   -1.111596864186
 H   -2.379536818870    0.709660454372   -0.968110125473
 C   -2.059495085948   -0.248220962155   -0.533529581861
 S   -0.250594857930   -0.436245425272   -0.664949343369
 S    0.239902657387    1.261176968912    0.520109659104
 C    2.048802882599    1.073013824509    0.388888573246
 H    2.368725961438    0.115121376495    0.823532490287
 H    2.485758366049    1.901016958364    0.966975976613
 H    2.368842969841    1.150876832769   -0.660080187461
NA    0.021856929250   -1.686225877651    0.295945496004
