11

 H   -2.399495385826   -0.234019376050    0.444656119303
 H   -2.516529491216   -0.984118047774   -1.182412135751
 H   -2.399615756239    0.801780529909   -1.038925397038
 C   -2.079574023317   -0.156100886618   -0.604344853426
 S   -0.270673795299   -0.344125349735   -0.735764614934
 S    0.219823720018    1.353297044449    0.449294387539
 C    2.028723945230    1.165133900046    0.318073301681
 H    2.348647024069    0.207241452032    0.752717218722
 H    2.465679428680    1.993137033901    0.896160705048
 H    2.348764032472    1.242996908306   -0.730895459026
NA    0.103947412074   -2.062848471756    0.585465789203
