11

 H   -2.419574323195   -0.141899300512    0.373840847737
 H   -2.536608428585   -0.891997972236   -1.253227407317
 H   -2.419694693608    0.893900605447   -1.109740668604
 C   -2.099652960686   -0.063980811080   -0.675160124992
 S   -0.290752732668   -0.252005274197   -0.806579886500
 S    0.199744782649    1.445417119987    0.378479115973
 C    2.008645007861    1.257253975584    0.247258030115
 H    2.328568086700    0.299361527570    0.681901947156
 H    2.445600491311    2.085257109439    0.825345433482
 H    2.328685095103    1.335116983844   -0.801710730592
NA    0.186037894898   -2.439471065860    0.874986082403
