11

 H   -2.422920812756   -0.126545954589    0.362038302476
 H   -2.539954918146   -0.876644626313   -1.265029952578
 H   -2.423041183169    0.909253951370   -1.121543213865
 C   -2.102999450247   -0.048627465157   -0.686962670253
 S   -0.294099222229   -0.236651928274   -0.818382431761
 S    0.196398293088    1.460770465910    0.366676570712
 C    2.005298518300    1.272607321507    0.235455484854
 H    2.325221597139    0.314714873493    0.670099401895
 H    2.442254001750    2.100610455362    0.813542888221
 H    2.325338605542    1.350470329767   -0.813513275853
NA    0.199719642035   -2.502241498211    0.923239464603
