11

 H   -2.432960281440   -0.080485916820    0.326630666693
 H   -2.549994386830   -0.830584588544   -1.300437588361
 H   -2.433080651853    0.955313989139   -1.156950849648
 C   -2.113038918931   -0.002567427388   -0.722370306036
 S   -0.304138690913   -0.190591890505   -0.853790067544
 S    0.186358824404    1.506830503679    0.331268934929
 C    1.995259049616    1.318667359276    0.200047849071
 H    2.315182128455    0.360774911262    0.634691766112
 H    2.432214533066    2.146670493131    0.778135252438
 H    2.315299136858    1.396530367536   -0.848920911636
NA    0.240764883447   -2.690552795263    1.067999611202
