11

 H   -2.439653260563   -0.049779224975    0.303025576172
 H   -2.556687365953   -0.799877896699   -1.324042678882
 H   -2.439773630976    0.986020680984   -1.180555940169
 C   -2.119731898054    0.028139264457   -0.745975396557
 S   -0.310831670036   -0.159885198660   -0.877395158065
 S    0.179665845281    1.537537195524    0.307663844408
 C    1.988566070493    1.349374051121    0.176442758550
 H    2.308489149332    0.391481603107    0.611086675591
 H    2.425521553943    2.177377184976    0.754530161917
 H    2.308606157735    1.427237059381   -0.872526002157
NA    0.268128377721   -2.816093659964    1.164506375602
