11

 H   -2.453039218809    0.011634158717    0.255815395128
 H   -2.570073324199   -0.738464513007   -1.371252859926
 H   -2.453159589222    1.047434064676   -1.227766121213
 C   -2.133117856300    0.089552648149   -0.793185577601
 S   -0.324217628282   -0.098471814968   -0.924605339109
 S    0.166279887035    1.598950579216    0.260453663364
 C    1.975180112247    1.410787434813    0.129232577506
 H    2.295103191086    0.452894986799    0.563876494547
 H    2.412135595697    2.238790568668    0.707319980873
 H    2.295220199489    1.488650443073   -0.919736183201
NA    0.322855366271   -3.067175389367    1.357519904402
