11

 H   -2.463078687493    0.057694196486    0.220407759345
 H   -2.580112792883   -0.692404475238   -1.406660495709
 H   -2.463199057906    1.093494102445   -1.263173756996
 C   -2.143157324984    0.135612685918   -0.828593213384
 S   -0.334257096966   -0.052411777199   -0.960012974892
 S    0.156240418351    1.645010616985    0.225046027581
 C    1.965140643563    1.456847472582    0.093824941723
 H    2.285063722402    0.498955024568    0.528468858764
 H    2.402096127013    2.284850606437    0.671912345090
 H    2.285180730805    1.534710480842   -0.955143818984
NA    0.363900607683   -3.255486686419    1.502280051001
