11

 H   -2.466425177055    0.073047542409    0.208605214084
 H   -2.583459282445   -0.677051129315   -1.418463040970
 H   -2.466545547468    1.108847448368   -1.274976302257
 C   -2.146503814546    0.150966031841   -0.840395758645
 S   -0.337603586528   -0.037058431276   -0.971815520153
 S    0.152893928789    1.660363962908    0.213243482320
 C    1.961794154001    1.472200818505    0.082022396462
 H    2.281717232840    0.514308370491    0.516666313503
 H    2.398749637451    2.300203952360    0.660109799829
 H    2.281834241243    1.550063826765   -0.966946364245
NA    0.377582354820   -3.318257118770    1.550533433201
