11

 H   -2.469771666616    0.088400888332    0.196802668823
 H   -2.586805772006   -0.661697783392   -1.430265586231
 H   -2.469892037029    1.124200794291   -1.286778847518
 C   -2.149850304107    0.166319377764   -0.852198303906
 S   -0.340950076089   -0.021705085353   -0.983618065414
 S    0.149547439228    1.675717308831    0.201440937059
 C    1.958447664440    1.487554164428    0.070219851201
 H    2.278370743279    0.529661716414    0.504863768242
 H    2.395403147890    2.315557298283    0.648307254568
 H    2.278487751682    1.565417172688   -0.978748909506
NA    0.391264101957   -3.381027551121    1.598786815401
