11

 H   -2.479811135301    0.134460926101    0.161395033041
 H   -2.596845240691   -0.615637745623   -1.465673222013
 H   -2.479931505714    1.170260832060   -1.322186483300
 C   -2.159889772792    0.212379415533   -0.887605939688
 S   -0.350989544774    0.024354952416   -1.019025701196
 S    0.139507970543    1.721777346600    0.166033301277
 C    1.948408195755    1.533614202197    0.034812215419
 H    2.268331274594    0.575721754183    0.469456132460
 H    2.385363679205    2.361617336052    0.612899618786
 H    2.268448282997    1.611477210457   -1.014156545288
NA    0.432309343369   -3.569338848173    1.743546962001
