11

 H   -2.483157624862    0.149814272024    0.149592487780
 H   -2.600191730252   -0.600284399700   -1.477475767274
 H   -2.483277995275    1.185614177983   -1.333989028561
 C   -2.163236262353    0.227732761456   -0.899408484949
 S   -0.354336034335    0.039708298339   -1.030828246457
 S    0.136161480982    1.737130692523    0.154230756016
 C    1.945061706194    1.548967548120    0.023009670158
 H    2.264984785033    0.591075100106    0.457653587199
 H    2.382017189644    2.376970681975    0.601097073525
 H    2.265101793436    1.626830556380   -1.025959090549
NA    0.445991090506   -3.632109280524    1.791800344201
