11

 H   -2.493197093547    0.195874309792    0.114184851997
 H   -2.610231198937   -0.554224361932   -1.512883403057
 H   -2.493317463960    1.231674215751   -1.369396664344
 C   -2.173275731038    0.273792799224   -0.934816120732
 S   -0.364375503020    0.085768336107   -1.066235882240
 S    0.126122012297    1.783190730291    0.118823120233
 C    1.935022237509    1.595027585888   -0.012397965625
 H    2.254945316348    0.637135137874    0.422245951416
 H    2.371977720959    2.423030719743    0.565689437742
 H    2.255062324751    1.672890594148   -1.061366726332
NA    0.487036331918   -3.820420577576    1.936560490800
