11

 H   -2.496543583108    0.211227655715    0.102382306736
 H   -2.613577688498   -0.538871016009   -1.524685948318
 H   -2.496663953521    1.247027561674   -1.381199209605
 C   -2.176622220599    0.289146145147   -0.946618665993
 S   -0.367721992581    0.101121682030   -1.078038427501
 S    0.122775522736    1.798544076214    0.107020574972
 C    1.931675747948    1.610380931811   -0.024200510886
 H    2.251598826787    0.652488483797    0.410443406155
 H    2.368631231398    2.438384065666    0.553886892481
 H    2.251715835190    1.688243940071   -1.073169271593
NA    0.500718079056   -3.883191009927    1.984813873000
