11

 H   -2.499890072669    0.226581001638    0.090579761475
 H   -2.616924178059   -0.523517670086   -1.536488493579
 H   -2.500010443082    1.262380907597   -1.393001754866
 C   -2.179968710160    0.304499491070   -0.958421211254
 S   -0.371068482142    0.116475027953   -1.089840972762
 S    0.119429033175    1.813897422137    0.095218029711
 C    1.928329258387    1.625734277734   -0.036003056147
 H    2.248252337226    0.667841829720    0.398640860894
 H    2.365284741837    2.453737411589    0.542084347220
 H    2.248369345629    1.703597285994   -1.084971816854
NA    0.514399826193   -3.945961442278    2.033067255200
