11

 H   -2.516622520477    0.303347731253    0.031567035171
 H   -2.633656625867   -0.446750940471   -1.595501219883
 H   -2.516742890890    1.339147637212   -1.452014481170
 C   -2.196701157968    0.381266220685   -1.017433937558
 S   -0.387800929950    0.193241757568   -1.148853699066
 S    0.102696585367    1.890664151752    0.036205303407
 C    1.911596810579    1.702501007349   -0.095015782451
 H    2.231519889418    0.744608559335    0.339628134590
 H    2.348552294029    2.530504141204    0.483071620916
 H    2.231636897821    1.780364015609   -1.143984543158
NA    0.582808561880   -4.259813604031    2.274334166200
