11

 H   -2.526661989161    0.349407769022   -0.003840600612
 H   -2.643696094551   -0.400690902702   -1.630908855666
 H   -2.526782359574    1.385207674981   -1.487422116953
 C   -2.206740626652    0.427326258454   -1.052841573341
 S   -0.397840398634    0.239301795337   -1.184261334849
 S    0.092657116683    1.936724189521    0.000797667624
 C    1.901557341895    1.748561045118   -0.130423418234
 H    2.221480420734    0.790668597104    0.304220498807
 H    2.338512825345    2.576564178973    0.447663985133
 H    2.221597429137    1.826424053378   -1.179392178941
NA    0.623853803291   -4.448124901083    2.419094312799
