11

 H   -2.543394436968    0.426174498636   -0.062853326917
 H   -2.660428542358   -0.323924173088   -1.689921581971
 H   -2.543514807381    1.461974404595   -1.546434843258
 C   -2.223473074459    0.504092988068   -1.111854299646
 S   -0.414572846441    0.316068524951   -1.243274061154
 S    0.075924668876    2.013490919135   -0.058215058681
 C    1.884824894088    1.825327774732   -0.189436144539
 H    2.204747972927    0.867435326718    0.245207772502
 H    2.321780377538    2.653330908587    0.388651258828
 H    2.204864981330    1.903190782992   -1.238404905246
NA    0.692262538978   -4.761977062837    2.660361223799
