11

 H   -2.546740926530    0.441527844559   -0.074655872178
 H   -2.663775031920   -0.308570827165   -1.701724127232
 H   -2.546861296943    1.477327750518   -1.558237388519
 C   -2.226819564021    0.519446333991   -1.123656844907
 S   -0.417919336003    0.331421870874   -1.255076606415
 S    0.072578179314    2.028844265058   -0.070017603942
 C    1.881478404526    1.840681120655   -0.201238689800
 H    2.201401483365    0.882788672641    0.233405227241
 H    2.318433887976    2.668684254510    0.376848713567
 H    2.201518491768    1.918544128915   -1.250207450507
NA    0.705944286115   -4.824747495188    2.708614605999
