11

 H   -2.560126884775    0.502941228251   -0.121866053221
 H   -2.677160990165   -0.247157443473   -1.748934308275
 H   -2.560247255188    1.538741134210   -1.605447569562
 C   -2.240205522266    0.580859717683   -1.170867025950
 S   -0.431305294248    0.392835254566   -1.302286787458
 S    0.059192221069    2.090257648750   -0.117227784985
 C    1.868092446281    1.902094504347   -0.248448870843
 H    2.188015525120    0.944202056333    0.186195046198
 H    2.305047929731    2.730097638202    0.329638532524
 H    2.188132533523    1.979957512607   -1.297417631550
NA    0.760671274665   -5.075829224591    2.901628134798
