11

 H   -2.566819863898    0.533647920097   -0.145471143743
 H   -2.683853969288   -0.216450751627   -1.772539398797
 H   -2.566940234311    1.569447826056   -1.629052660084
 C   -2.246898501389    0.611566409529   -1.194472116472
 S   -0.437998273371    0.423541946412   -1.325891877980
 S    0.052499241946    2.120964340596   -0.140832875507
 C    1.861399467158    1.932801196193   -0.272053961365
 H    2.181322545997    0.974908748179    0.162589955676
 H    2.298354950608    2.760804330048    0.306033442002
 H    2.181439554400    2.010664204453   -1.321022722072
NA    0.788034768939   -5.201370089292    2.998134899198
