11

 H   -2.573512843021    0.564354611943   -0.169076234265
 H   -2.690546948411   -0.185744059781   -1.796144489319
 H   -2.573633213434    1.600154517902   -1.652657750606
 C   -2.253591480512    0.642273101375   -1.218077206994
 S   -0.444691252494    0.454248638258   -1.349496968502
 S    0.045806262823    2.151671032442   -0.164437966029
 C    1.854706488035    1.963507888039   -0.295659051887
 H    2.174629566874    1.005615440025    0.138984865154
 H    2.291661971485    2.791511021894    0.282428351480
 H    2.174746575277    2.041370896299   -1.344627812594
NA    0.815398263214   -5.326910953994    3.094641663598
