11

 H   -2.583552311706    0.610414649712   -0.204483870048
 H   -2.700586417096   -0.139684022012   -1.831552125102
 H   -2.583672682119    1.646214555671   -1.688065386389
 C   -2.263630949197    0.688333139144   -1.253484842777
 S   -0.454730721179    0.500308676027   -1.384904604285
 S    0.035766794138    2.197731070211   -0.199845601812
 C    1.844667019350    2.009567925808   -0.331066687670
 H    2.164590098189    1.051675477794    0.103577229371
 H    2.281622502800    2.837571059663    0.247020715697
 H    2.164707106592    2.087430934068   -1.380035448377
NA    0.856443504626   -5.515222251046    3.239401810198
