11

 H   -2.586898801267    0.625767995635   -0.216286415309
 H   -2.703932906657   -0.124330676089   -1.843354670363
 H   -2.587019171680    1.661567901594   -1.699867931650
 C   -2.266977438758    0.703686485067   -1.265287388038
 S   -0.458077210740    0.515662021950   -1.396707149546
 S    0.032420304577    2.213084416134   -0.211648147073
 C    1.841320529789    2.024921271731   -0.342869232931
 H    2.161243608628    1.067028823717    0.091774684110
 H    2.278276013239    2.852924405586    0.235218170436
 H    2.161360617031    2.102784279991   -1.391837993638
NA    0.870125251763   -5.577992683397    3.287655192397
