11

 H   -2.593591780390    0.656474687480   -0.239891505830
 H   -2.710625885780   -0.093623984244   -1.866959760884
 H   -2.593712150803    1.692274593439   -1.723473022171
 C   -2.273670417881    0.734393176912   -1.288892478559
 S   -0.464770189863    0.546368713795   -1.420312240067
 S    0.025727325454    2.243791107979   -0.235253237594
 C    1.834627550666    2.055627963576   -0.366474323452
 H    2.154550629505    1.097735515562    0.068169593589
 H    2.271583034116    2.883631097431    0.211613079915
 H    2.154667637908    2.133490971836   -1.415443084159
NA    0.897488746038   -5.703533548098    3.384161956797
