11

 H   -2.596938269951    0.671828033403   -0.251694051091
 H   -2.713972375341   -0.078270638321   -1.878762306145
 H   -2.597058640364    1.707627939362   -1.735275567432
 C   -2.277016907442    0.749746522835   -1.300695023820
 S   -0.468116679424    0.561722059718   -1.432114785328
 S    0.022380835893    2.259144453902   -0.247055782855
 C    1.831281061105    2.070981309499   -0.378276868713
 H    2.151204139944    1.113088861485    0.056367048328
 H    2.268236544555    2.898984443354    0.199810534654
 H    2.151321148347    2.148844317759   -1.427245629420
NA    0.911170493175   -5.766303980449    3.432415338997
