11

 H   -2.600284759513    0.687181379326   -0.263496596352
 H   -2.717318864903   -0.062917292398   -1.890564851406
 H   -2.600405129926    1.722981285285   -1.747078112693
 C   -2.280363397004    0.765099868758   -1.312497569081
 S   -0.471463168986    0.577075405641   -1.443917330589
 S    0.019034346331    2.274497799825   -0.258858328116
 C    1.827934571543    2.086334655422   -0.390079413974
 H    2.147857650382    1.128442207408    0.044564503067
 H    2.264890054993    2.914337789277    0.188007989393
 H    2.147974658785    2.164197663682   -1.439048174681
NA    0.924852240312   -5.829074412800    3.480668721197
