11

 H   -2.610324228197    0.733241417095   -0.298904232135
 H   -2.727358333587   -0.016857254629   -1.925972487189
 H   -2.610444598610    1.769041323054   -1.782485748476
 C   -2.290402865688    0.811159906527   -1.347905204864
 S   -0.481502637670    0.623135443410   -1.479324966372
 S    0.008994877647    2.320557837594   -0.294265963899
 C    1.817895102859    2.132394693191   -0.425487049757
 H    2.137818181698    1.174502245177    0.009156867284
 H    2.254850586309    2.960397827046    0.152600353610
 H    2.137935190101    2.210257701451   -1.474455810464
NA    0.965897481724   -6.017385709852    3.625428867797
