11

 H   -2.640442634250    0.871421530402   -0.405127139483
 H   -2.757476739640    0.121322858678   -2.032195394537
 H   -2.640563004663    1.907221436361   -1.888708655824
 C   -2.320521271741    0.949340019834   -1.454128112212
 S   -0.511621043723    0.761315556717   -1.585547873720
 S   -0.021123528406    2.458737950901   -0.400488871247
 C    1.787776696806    2.270574806498   -0.531709957105
 H    2.107699775645    1.312682358484   -0.097066040064
 H    2.224732180256    3.098577940353    0.046377446262
 H    2.107816784048    2.348437814758   -1.580678717812
NA    1.089033205960   -6.582319601008    4.059709307596
