11

 H   -2.650482102935    0.917481568170   -0.440534775266
 H   -2.767516208325    0.167382896446   -2.067603030320
 H   -2.650602473348    1.953281474129   -1.924116291607
 C   -2.330560740426    0.995400057602   -1.489535747995
 S   -0.521660512408    0.807375594485   -1.620955509503
 S   -0.031162997091    2.504797988669   -0.435896507030
 C    1.777737228121    2.316634844266   -0.567117592888
 H    2.097660306960    1.358742396252   -0.132473675847
 H    2.214692711571    3.144637978121    0.010969810479
 H    2.097777315363    2.394497852526   -1.616086353595
NA    1.130078447372   -6.770630898061    4.204469454195
