11

 H   -2.657175082057    0.948188260016   -0.464139865788
 H   -2.774209187447    0.198089588292   -2.091208120842
 H   -2.657295452470    1.983988165975   -1.947721382129
 C   -2.337253719548    1.026106749448   -1.513140838517
 S   -0.528353491530    0.838082286331   -1.644560600025
 S   -0.037855976213    2.535504680515   -0.459501597552
 C    1.771044248999    2.347341536112   -0.590722683410
 H    2.090967327838    1.389449088098   -0.156078766369
 H    2.207999732449    3.175344669967   -0.012635280043
 H    2.091084336241    2.425204544372   -1.639691444117
NA    1.157441941647   -6.896171762762    4.300976218595
