16

 N   -0.850467496674    1.398704122302    0.037160761881
 C    0.520147915735    1.598178800143    0.033529127505
 H    0.841932212073    2.641923731019    0.054947943198
 C   -1.450182766103    0.145588962749    0.012630771225
 O   -2.667956797635   -0.021353743318    0.013626851999
 N   -0.524876750492   -0.891188647093   -0.015025765764
 H   -0.919450458355   -1.829702956942   -0.035534639162
 C    0.880853627903   -0.805149934775   -0.023473816555
 O    1.569174300331   -1.828767156577   -0.051581755108
 C    1.410622808968    0.563238933959    0.005132552579
 C    2.902912702574    0.747097259421    0.000301742753
 H    3.164460331654    1.815525136289    0.022955910900
 H    3.343057016164    0.288777039999   -0.898806508693
 H    3.353917909283    0.248610774115    0.872238579666
 H   -1.492773720003    2.182957160476    0.057056180171
LI   -3.234646893177   -1.409868045799   -0.016212173122
