16

 N   -0.846483397667    1.408466033613    0.037370544320
 C    0.524132014742    1.607940711454    0.033738909944
 H    0.845916311080    2.651685642330    0.055157725637
 C   -1.446198667096    0.155350874060    0.012840553664
 O   -2.663972698628   -0.011591832007    0.013836634438
 N   -0.520892651485   -0.881426735782   -0.014815983325
 H   -0.915466359348   -1.819941045631   -0.035324856723
 C    0.884837726910   -0.795388023464   -0.023264034116
 O    1.573158399338   -1.819005245266   -0.051371972669
 C    1.414606907975    0.573000845270    0.005342335018
 C    2.906896801581    0.756859170732    0.000511525192
 H    3.168444430661    1.825287047600    0.023165693339
 H    3.347041115171    0.298538951310   -0.898596726254
 H    3.357902008290    0.258372685426    0.872448362105
 H   -1.488789620996    2.192719071787    0.057265962610
LI   -3.306221473576   -1.585241374819   -0.019980927366
