16

 N   -0.844491348164    1.413346989269    0.037475435540
 C    0.526124064245    1.612821667110    0.033843801164
 H    0.847908360583    2.656566597986    0.055262616857
 C   -1.444206617593    0.160231829716    0.012945444884
 O   -2.661980649125   -0.006710876351    0.013941525658
 N   -0.518900601982   -0.876545780126   -0.014711092105
 H   -0.913474309845   -1.815060089975   -0.035219965503
 C    0.886829776413   -0.790507067808   -0.023159142896
 O    1.575150448841   -1.814124289610   -0.051267081449
 C    1.416598957478    0.577881800926    0.005447226238
 C    2.908888851084    0.761740126388    0.000616416412
 H    3.170436480164    1.830168003256    0.023270584559
 H    3.349033164674    0.303419906966   -0.898491835034
 H    3.359894057793    0.263253641082    0.872553253325
 H   -1.486797571493    2.197600027443    0.057370853830
LI   -3.342008763775   -1.672928039329   -0.021865304488
