16

 N   -0.842499298660    1.418227944924    0.037580326759
 C    0.528116113749    1.617702622765    0.033948692383
 H    0.849900410087    2.661447553641    0.055367508076
 C   -1.442214568089    0.165112785371    0.013050336103
 O   -2.659988599621   -0.001829920696    0.014046416877
 N   -0.516908552478   -0.871664824471   -0.014606200886
 H   -0.911482260341   -1.810179134320   -0.035115074284
 C    0.888821825917   -0.785626112153   -0.023054251677
 O    1.577142498345   -1.809243333955   -0.051162190230
 C    1.418591006982    0.582762756581    0.005552117457
 C    2.910880900588    0.766621082043    0.000721307631
 H    3.172428529668    1.835048958911    0.023375475778
 H    3.351025214178    0.308300862621   -0.898386943815
 H    3.361886107297    0.268134596737    0.872658144544
 H   -1.484805521989    2.202480983098    0.057475745049
LI   -3.377796053974   -1.760614703838   -0.023749681610
