16

 N   -0.681143288879    1.813585353029    0.046076515536
 C    0.689472123530    2.013060030870    0.042444881160
 H    1.011256419868    3.056804961746    0.063863696853
 C   -1.280858558308    0.560470193476    0.021546524880
 O   -2.498632589840    0.393527487409    0.022542605654
 N   -0.355552542697   -0.476307416366   -0.006110012109
 H   -0.750126250560   -1.414821726215   -0.026618885507
 C    1.050177835698   -0.390268704048   -0.014558062900
 O    1.738498508126   -1.413885925850   -0.042666001453
 C    1.579947016763    0.978120164686    0.014048306234
 C    3.072236910369    1.161978490148    0.009217496408
 H    3.333784539449    2.230406367016    0.031871664555
 H    3.512381223959    0.703658270726   -0.889890755038
 H    3.523242117078    0.663492004842    0.881154333321
 H   -1.323449512208    2.597838391203    0.065971933826
LI   -6.276566560120   -8.863234529132   -0.176384228488
