16

 N   -0.840507249157    1.423108900580    0.037685217979
 C    0.530108163252    1.622583578421    0.034053583603
 H    0.851892459590    2.666328509297    0.055472399296
 C   -1.440222518586    0.169993741027    0.013155227323
 O   -2.657996550118    0.003051034960    0.014151308097
 N   -0.514916502975   -0.866783868815   -0.014501309666
 H   -0.909490210838   -1.805298178664   -0.035010183064
 C    0.890813875420   -0.780745156497   -0.022949360457
 O    1.579134547848   -1.804362378299   -0.051057299010
 C    1.420583056485    0.587643712237    0.005657008677
 C    2.912872950091    0.771502037699    0.000826198851
 H    3.174420579171    1.839929914567    0.023480366998
 H    3.353017263681    0.313181818277   -0.898282052595
 H    3.363878156800    0.273015552393    0.872763035764
 H   -1.482813472486    2.207361938754    0.057580636269
LI   -3.413583344174   -1.848301368348   -0.025634058732
