16

 N   -0.830547001639    1.447513678858    0.038209674076
 C    0.540068410770    1.646988356699    0.034578039700
 H    0.861852707108    2.690733287575    0.055996855393
 C   -1.430262271068    0.194398519305    0.013679683420
 O   -2.648036302600    0.027455813238    0.014675764194
 N   -0.504956255457   -0.842379090537   -0.013976853569
 H   -0.899529963320   -1.780893400386   -0.034485726967
 C    0.900774122938   -0.756340378219   -0.022424904360
 O    1.589094795366   -1.779957600021   -0.050532842913
 C    1.430543304003    0.612048490515    0.006181464774
 C    2.922833197609    0.795906815977    0.001350654948
 H    3.184380826689    1.864334692845    0.024004823095
 H    3.362977511199    0.337586596555   -0.897757596498
 H    3.373838404318    0.297420330671    0.873287491861
 H   -1.472853224968    2.231766717032    0.058105092366
LI   -3.592519795170   -2.286734690897   -0.035055944341
