16

 N   -0.828554952136    1.452394634514    0.038314565296
 C    0.542060460273    1.651869312355    0.034682930920
 H    0.863844756611    2.695614243231    0.056101746613
 C   -1.428270221565    0.199279474961    0.013784574640
 O   -2.646044253097    0.032336768894    0.014780655414
 N   -0.502964205954   -0.837498134881   -0.013871962349
 H   -0.897537913817   -1.776012444730   -0.034380835747
 C    0.902766172441   -0.751459422563   -0.022320013140
 O    1.591086844869   -1.775076644365   -0.050427951693
 C    1.432535353506    0.616929446171    0.006286355994
 C    2.924825247112    0.800787771633    0.001455546168
 H    3.186372876192    1.869215648501    0.024109714315
 H    3.364969560702    0.342467552211   -0.897652705278
 H    3.375830453821    0.302301286327    0.873392383081
 H   -1.470861175465    2.236647672688    0.058209983586
LI   -3.628307085370   -2.374421355407   -0.036940321463
