16

 N   -0.826562902632    1.457275590169    0.038419456515
 C    0.544052509777    1.656750268010    0.034787822139
 H    0.865836806115    2.700495198886    0.056206637832
 C   -1.426278172061    0.204160430616    0.013889465859
 O   -2.644052203593    0.037217724549    0.014885546633
 N   -0.500972156450   -0.832617179226   -0.013767071130
 H   -0.895545864313   -1.771131489075   -0.034275944528
 C    0.904758221945   -0.746578466908   -0.022215121921
 O    1.593078894373   -1.770195688710   -0.050323060474
 C    1.434527403010    0.621810401826    0.006391247213
 C    2.926817296616    0.805668727288    0.001560437387
 H    3.188364925696    1.874096604156    0.024214605534
 H    3.366961610206    0.347348507866   -0.897547814059
 H    3.377822503325    0.307182241982    0.873497274300
 H   -1.468869125961    2.241528628343    0.058314874805
LI   -3.664094375569   -2.462108019917   -0.038824698585
