16

 N   -0.824570853129    1.462156545825    0.038524347734
 C    0.546044559280    1.661631223666    0.034892713358
 H    0.867828855618    2.705376154542    0.056311529051
 C   -1.424286122558    0.209041386272    0.013994357078
 O   -2.642060154090    0.042098680205    0.014990437852
 N   -0.498980106947   -0.827736223570   -0.013662179911
 H   -0.893553814810   -1.766250533419   -0.034171053309
 C    0.906750271448   -0.741697511252   -0.022110230702
 O    1.595070943876   -1.765314733054   -0.050218169255
 C    1.436519452513    0.626691357482    0.006496138432
 C    2.928809346119    0.810549682944    0.001665328606
 H    3.190356975199    1.878977559812    0.024319496753
 H    3.368953659709    0.352229463522   -0.897442922840
 H    3.379814552828    0.312063197638    0.873602165519
 H   -1.466877076458    2.246409583999    0.058419766024
LI   -3.699881665768   -2.549794684427   -0.040709075707
