16

 N   -0.818594704619    1.476799412792    0.038839021393
 C    0.552020707790    1.676274090633    0.035207387017
 H    0.873805004128    2.720019021509    0.056626202710
 C   -1.418309974048    0.223684253239    0.014309030737
 O   -2.636084005580    0.056741547172    0.015305111511
 N   -0.493003958437   -0.813093356603   -0.013347506252
 H   -0.887577666300   -1.751607666452   -0.033856379650
 C    0.912726419958   -0.727054644285   -0.021795557043
 O    1.601047092386   -1.750671866087   -0.049903495596
 C    1.442495601023    0.641334224449    0.006810812091
 C    2.934785494629    0.825192549911    0.001980002265
 H    3.196333123709    1.893620426779    0.024634170412
 H    3.374929808219    0.366872330489   -0.897128249181
 H    3.385790701338    0.326706064605    0.873916839178
 H   -1.460900927948    2.261052450966    0.058734439683
LI   -3.807243536366   -2.812854677956   -0.046362207073
