16

 N   -0.812618556108    1.491442279758    0.039153695051
 C    0.557996856301    1.690916957599    0.035522060675
 H    0.879781152639    2.734661888475    0.056940876368
 C   -1.412333825537    0.238327120205    0.014623704395
 O   -2.630107857069    0.071384414138    0.015619785169
 N   -0.487027809926   -0.798450489637   -0.013032832594
 H   -0.881601517789   -1.736964799486   -0.033541705992
 C    0.918702568469   -0.712411777319   -0.021480883385
 O    1.607023240897   -1.736028999121   -0.049588821938
 C    1.448471749534    0.655977091415    0.007125485749
 C    2.940761643140    0.839835416877    0.002294675923
 H    3.202309272220    1.908263293745    0.024948844070
 H    3.380905956730    0.381515197455   -0.896813575523
 H    3.391766849849    0.341348931571    0.874231512836
 H   -1.454924779437    2.275695317932    0.059049113341
LI   -3.914605406964   -3.075914671485   -0.052015338439
