16

 N   -0.808634457101    1.501204191070    0.039363477490
 C    0.561980955308    1.700678868911    0.035731843114
 H    0.883765251646    2.744423799787    0.057150658807
 C   -1.408349726530    0.248089031517    0.014833486834
 O   -2.626123758062    0.081146325450    0.015829567608
 N   -0.483043710919   -0.788688578325   -0.012823050155
 H   -0.877617418782   -1.727202888174   -0.033331923553
 C    0.922686667476   -0.702649866007   -0.021271100946
 O    1.611007339904   -1.726267087809   -0.049379039499
 C    1.452455848541    0.665739002727    0.007335268188
 C    2.944745742147    0.849597328189    0.002504458362
 H    3.206293371227    1.918025205057    0.025158626509
 H    3.384890055737    0.391277108767   -0.896603793084
 H    3.395750948856    0.351110842883    0.874441295275
 H   -1.450940680430    2.285457229244    0.059258895780
LI   -3.986179987363   -3.251288000505   -0.055784092683
