16

 N   -0.806642407598    1.506085146725    0.039468368710
 C    0.563973004811    1.705559824566    0.035836734334
 H    0.885757301149    2.749304755442    0.057255550027
 C   -1.406357677027    0.252969987172    0.014938378054
 O   -2.624131708559    0.086027281105    0.015934458828
 N   -0.481051661416   -0.783807622670   -0.012718158935
 H   -0.875625369279   -1.722321932519   -0.033227032333
 C    0.924678716979   -0.697768910352   -0.021166209726
 O    1.612999389407   -1.721386132154   -0.049274148279
 C    1.454447898044    0.670619958382    0.007440159408
 C    2.946737791650    0.854478283844    0.002609349582
 H    3.208285420730    1.922906160712    0.025263517729
 H    3.386882105240    0.396158064422   -0.896498901864
 H    3.397742998359    0.355991798538    0.874546186495
 H   -1.448948630927    2.290338184899    0.059363787000
LI   -4.021967277562   -3.338974665015   -0.057668469805
