16

 N   -0.802658308591    1.515847058036    0.039678151149
 C    0.567957103818    1.715321735877    0.036046516773
 H    0.889741400156    2.759066666753    0.057465332466
 C   -1.402373578020    0.262731898483    0.015148160493
 O   -2.620147609552    0.095789192416    0.016144241267
 N   -0.477067562409   -0.774045711359   -0.012508376496
 H   -0.871641270272   -1.712560021208   -0.033017249894
 C    0.928662815986   -0.688006999041   -0.020956427287
 O    1.616983488414   -1.711624220843   -0.049064365840
 C    1.458431997051    0.680381869693    0.007649941847
 C    2.950721890657    0.864240195155    0.002819132021
 H    3.212269519737    1.932668072023    0.025473300168
 H    3.390866204247    0.405919975733   -0.896289119425
 H    3.401727097366    0.365753709849    0.874755968934
 H   -1.444964531920    2.300100096210    0.059573569439
LI   -4.093541857961   -3.514347994034   -0.061437224049
