16

 N   -0.800666259087    1.520728013692    0.039783042368
 C    0.569949153322    1.720202691533    0.036151407992
 H    0.891733449660    2.763947622409    0.057570223685
 C   -1.400381528516    0.267612854139    0.015253051712
 O   -2.618155560048    0.100670148072    0.016249132486
 N   -0.475075512905   -0.769164755703   -0.012403485277
 H   -0.869649220768   -1.707679065552   -0.032912358675
 C    0.930654865490   -0.683126043385   -0.020851536068
 O    1.618975537918   -1.706743265187   -0.048959474621
 C    1.460424046555    0.685262825349    0.007754833066
 C    2.952713940161    0.869121150811    0.002924023240
 H    3.214261569241    1.937549027679    0.025578191387
 H    3.392858253751    0.410800931389   -0.896184228206
 H    3.403719146870    0.370634665505    0.874860860153
 H   -1.442972482416    2.304981051866    0.059678460658
LI   -4.129329148160   -3.602034658544   -0.063321601171
