16

 N   -0.790706011570    1.545132791970    0.040307498465
 C    0.579909400839    1.744607469811    0.036675864089
 H    0.901693697177    2.788352400687    0.058094679782
 C   -1.390421280999    0.292017632417    0.015777507809
 O   -2.608195312531    0.125074926350    0.016773588583
 N   -0.465115265388   -0.744759977425   -0.011879029180
 H   -0.859688973251   -1.683274287274   -0.032387902578
 C    0.940615113007   -0.658721265107   -0.020327079971
 O    1.628935785435   -1.682338486909   -0.048435018524
 C    1.470384294072    0.709667603627    0.008279289163
 C    2.962674187678    0.893525929089    0.003448479337
 H    3.224221816758    1.961953805957    0.026102647484
 H    3.402818501268    0.435205709667   -0.895659772109
 H    3.413679394387    0.395039443783    0.875385316250
 H   -1.433012234899    2.329385830144    0.060202916755
LI   -4.308265599157   -4.040467981093   -0.072743486781
