16

 N   -0.780745764053    1.569537570248    0.040831954563
 C    0.589869648356    1.769012248089    0.037200320187
 H    0.911653944694    2.812757178965    0.058619135880
 C   -1.380461033482    0.316422410695    0.016301963907
 O   -2.598235065014    0.149479704628    0.017298044681
 N   -0.455155017871   -0.720355199147   -0.011354573082
 H   -0.849728725734   -1.658869508996   -0.031863446480
 C    0.950575360524   -0.634316486829   -0.019802623873
 O    1.638896032952   -1.657933708631   -0.047910562426
 C    1.480344541589    0.734072381905    0.008803745261
 C    2.972634435195    0.917930707367    0.003972935435
 H    3.234182064275    1.986358584235    0.026627103582
 H    3.412778748785    0.459610487945   -0.895135316011
 H    3.423639641904    0.419444222061    0.875909772348
 H   -1.423051987382    2.353790608422    0.060727372853
LI   -4.487202050154   -4.478901303642   -0.082165372390
