16

 N   -0.776761665046    1.579299481559    0.041041737001
 C    0.593853747363    1.778774159400    0.037410102625
 H    0.915638043701    2.822519090276    0.058828918318
 C   -1.376476934475    0.326184322006    0.016511746345
 O   -2.594250966007    0.159241615939    0.017507827119
 N   -0.451170918864   -0.710593287836   -0.011144790644
 H   -0.845744626727   -1.649107597685   -0.031653664042
 C    0.954559459531   -0.624554575518   -0.019592841435
 O    1.642880131959   -1.648171797320   -0.047700779988
 C    1.484328640596    0.743834293216    0.009013527699
 C    2.976618534202    0.927692618678    0.004182717873
 H    3.238166163282    1.996120495546    0.026836886020
 H    3.416762847792    0.469372399256   -0.894925533573
 H    3.427623740911    0.429206133372    0.876119554786
 H   -1.419067888375    2.363552519733    0.060937155291
LI   -4.558776630552   -4.654274632662   -0.085934126634
