16

 N   -0.774769615542    1.584180437215    0.041146628221
 C    0.595845796867    1.783655115056    0.037514993845
 H    0.917630093205    2.827400045932    0.058933809538
 C   -1.374484884971    0.331065277662    0.016616637565
 O   -2.592258916503    0.164122571595    0.017612718339
 N   -0.449178869360   -0.705712332180   -0.011039899424
 H   -0.843752577223   -1.644226642029   -0.031548772822
 C    0.956551509035   -0.619673619862   -0.019487950215
 O    1.644872181463   -1.643290841664   -0.047595888768
 C    1.486320690100    0.748715248872    0.009118418919
 C    2.978610583706    0.932573574334    0.004287609093
 H    3.240158212786    2.001001451202    0.026941777240
 H    3.418754897296    0.474253354912   -0.894820642353
 H    3.429615790415    0.434087089028    0.876224446006
 H   -1.417075838871    2.368433475389    0.061042046511
LI   -4.594563920752   -4.741961297171   -0.087818503756
