16

 N   -0.770785516535    1.593942348526    0.041356410660
 C    0.599829895874    1.793417026367    0.037724776284
 H    0.921614192212    2.837161957243    0.059143591977
 C   -1.370500785964    0.340827188973    0.016826420004
 O   -2.588274817496    0.173884482906    0.017822500778
 N   -0.445194770353   -0.695950420869   -0.010830116985
 H   -0.839768478216   -1.634464730718   -0.031338990383
 C    0.960535608042   -0.609911708551   -0.019278167776
 O    1.648856280470   -1.633528930353   -0.047386106329
 C    1.490304789107    0.758477160183    0.009328201358
 C    2.982594682713    0.942335485645    0.004497391532
 H    3.244142311793    2.010763362513    0.027151559679
 H    3.422738996303    0.484015266223   -0.894610859914
 H    3.433599889422    0.443849000339    0.876434228445
 H   -1.413091739864    2.378195386700    0.061251828950
LI   -4.666138501150   -4.917334626191   -0.091587258000
