16

 N   -0.760825269018    1.618347126804    0.041880866757
 C    0.609790143391    1.817821804645    0.038249232381
 H    0.931574439729    2.861566735521    0.059668048074
 C   -1.360540538447    0.365231967251    0.017350876101
 O   -2.578314569979    0.198289261184    0.018346956875
 N   -0.435234522836   -0.671545642591   -0.010305660888
 H   -0.829808230699   -1.610059952440   -0.030814534286
 C    0.970495855559   -0.585506930273   -0.018753711679
 O    1.658816527987   -1.609124152075   -0.046861650232
 C    1.500265036624    0.782881938461    0.009852657455
 C    2.992554930230    0.966740263923    0.005021847629
 H    3.254102559310    2.035168140791    0.027676015776
 H    3.432699243820    0.508420044501   -0.894086403817
 H    3.443560136939    0.468253778617    0.876958684542
 H   -1.403131492347    2.402600164978    0.061776285047
LI   -4.845074952147   -5.355767948740   -0.101009143610
