16

 N   -0.756841170011    1.628109038115    0.042090649196
 C    0.613774242398    1.827583715956    0.038459014820
 H    0.935558538736    2.871328646832    0.059877830513
 C   -1.356556439440    0.374993878562    0.017560658540
 O   -2.574330470972    0.208051172495    0.018556739314
 N   -0.431250423829   -0.661783731280   -0.010095878449
 H   -0.825824131692   -1.600298041129   -0.030604751847
 C    0.974479954566   -0.575745018962   -0.018543929240
 O    1.662800626994   -1.599362240764   -0.046651867793
 C    1.504249135631    0.792643849772    0.010062439894
 C    2.996539029237    0.976502175234    0.005231630068
 H    3.258086658317    2.044930052102    0.027885798215
 H    3.436683342827    0.518181955812   -0.893876621378
 H    3.447544235946    0.478015689928    0.877168466981
 H   -1.399147393340    2.412362076289    0.061986067486
LI   -4.916649532546   -5.531141277760   -0.104777897854
