16

 N   -0.730944526466    1.691561461638    0.043454235049
 C    0.639670885943    1.891036139479    0.039822600673
 H    0.961455182281    2.934781070355    0.061241416366
 C   -1.330659795895    0.438446302085    0.018924244393
 O   -2.548433827427    0.271503596018    0.019920325167
 N   -0.405353780284   -0.598331307757   -0.008732292596
 H   -0.799927488147   -1.536845617606   -0.029241165994
 C    1.000376598111   -0.512292595439   -0.017180343387
 O    1.688697270539   -1.535909817241   -0.045288281940
 C    1.530145779176    0.856096273295    0.011426025747
 C    3.022435672782    1.039954598757    0.006595215921
 H    3.283983301862    2.108382475625    0.029249384068
 H    3.462579986372    0.581634379335   -0.892513035525
 H    3.473440879491    0.541468113451    0.878532052834
 H   -1.373250749795    2.475814499812    0.063349653339
LI   -5.381884305137   -6.671067916387   -0.129274800439
