16

 N   -0.722976328452    1.711085284261    0.043873799927
 C    0.647639083957    1.910559962102    0.040242165551
 H    0.969423380295    2.954304892978    0.061660981244
 C   -1.322691597881    0.457970124708    0.019343809271
 O   -2.540465629413    0.291027418641    0.020339890045
 N   -0.397385582270   -0.578807485134   -0.008312727718
 H   -0.791959290133   -1.517321794983   -0.028821601116
 C    1.008344796125   -0.492768772816   -0.016760778509
 O    1.696665468553   -1.516385994618   -0.044868717062
 C    1.538113977190    0.875620095918    0.011845590625
 C    3.030403870796    1.059478421380    0.007014780799
 H    3.291951499876    2.127906298248    0.029668948946
 H    3.470548184386    0.601158201958   -0.892093470647
 H    3.481409077505    0.560991936074    0.878951617712
 H   -1.365282551781    2.495338322435    0.063769218217
LI   -5.525033465934   -7.021814574426   -0.136812308927
