16

 N   -0.718992229445    1.720847195572    0.044083582366
 C    0.651623182964    1.920321873413    0.040451947990
 H    0.973407479302    2.964066804289    0.061870763683
 C   -1.318707498874    0.467732036019    0.019553591710
 O   -2.536481530406    0.300789329952    0.020549672484
 N   -0.393401483263   -0.569045573823   -0.008102945279
 H   -0.787975191126   -1.507559883672   -0.028611818677
 C    1.012328895132   -0.483006861505   -0.016550996070
 O    1.700649567560   -1.506624083307   -0.044658934623
 C    1.542098076197    0.885382007229    0.012055373064
 C    3.034387969803    1.069240332691    0.007224563238
 H    3.295935598883    2.137668209559    0.029878731385
 H    3.474532283393    0.610920113269   -0.891883688208
 H    3.485393176512    0.570753847385    0.879161400151
 H   -1.361298452774    2.505100233746    0.063979000656
LI   -5.596608046333   -7.197187903446   -0.140581063171
