16

 N   -0.709031981928    1.745251973850    0.044608038463
 C    0.661583430481    1.944726651691    0.040976404087
 H    0.983367726819    2.988471582567    0.062395219780
 C   -1.308747251357    0.492136814297    0.020078047807
 O   -2.526521282889    0.325194108230    0.021074128581
 N   -0.383441235746   -0.544640795545   -0.007578489182
 H   -0.778014943609   -1.483155105394   -0.028087362580
 C    1.022289142649   -0.458602083227   -0.016026539973
 O    1.710609815077   -1.482219305029   -0.044134478526
 C    1.552058323714    0.909786785507    0.012579829161
 C    3.044348217320    1.093645110969    0.007749019335
 H    3.305895846400    2.162072987837    0.030403187482
 H    3.484492530910    0.635324891547   -0.891359232111
 H    3.495353424029    0.595158625663    0.879685856248
 H   -1.351338205257    2.529505012024    0.064503456753
LI   -5.775544497329   -7.635621225995   -0.150002948781
