16

 N   -0.707039932424    1.750132929506    0.044712929683
 C    0.663575479985    1.949607607347    0.041081295307
 H    0.985359776323    2.993352538223    0.062500111000
 C   -1.306755201853    0.497017769953    0.020182939027
 O   -2.524529233385    0.330075063886    0.021179019801
 N   -0.381449186242   -0.539759839889   -0.007473597962
 H   -0.776022894105   -1.478274149738   -0.027982471360
 C    1.024281192153   -0.453721127571   -0.015921648753
 O    1.712601864581   -1.477338349373   -0.044029587306
 C    1.554050373218    0.914667741163    0.012684720381
 C    3.046340266824    1.098526066625    0.007853910555
 H    3.307887895904    2.166953943493    0.030508078702
 H    3.486484580414    0.640205847203   -0.891254340891
 H    3.497345473533    0.600039581319    0.879790747468
 H   -1.349346155753    2.534385967680    0.064608347973
LI   -5.811331787529   -7.723307890504   -0.151887325903
