16

 N   -0.705047882921    1.755013885161    0.044817820902
 C    0.665567529488    1.954488563002    0.041186186526
 H    0.987351825826    2.998233493878    0.062605002219
 C   -1.304763152350    0.501898725608    0.020287830246
 O   -2.522537183882    0.334956019541    0.021283911020
 N   -0.379457136739   -0.534878884234   -0.007368706743
 H   -0.774030844602   -1.473393194083   -0.027877580141
 C    1.026273241656   -0.448840171916   -0.015816757534
 O    1.714593914084   -1.472457393718   -0.043924696087
 C    1.556042422721    0.919548696818    0.012789611600
 C    3.048332316327    1.103407022280    0.007958801774
 H    3.309879945407    2.171834899148    0.030612969921
 H    3.488476629917    0.645086802858   -0.891149449672
 H    3.499337523036    0.604920536974    0.879895638687
 H   -1.347354106250    2.539266923335    0.064713239192
LI   -5.847119077728   -7.810994555014   -0.153771703025
