16

 N   -0.699071734411    1.769656752128    0.045132494560
 C    0.671543677998    1.969131429969    0.041500860184
 H    0.993327974336    3.012876360845    0.062919675877
 C   -1.298787003840    0.516541592575    0.020602503904
 O   -2.516561035372    0.349598886508    0.021598584678
 N   -0.373480988229   -0.520236017267   -0.007054033085
 H   -0.768054696092   -1.458750327116   -0.027562906483
 C    1.032249390166   -0.434197304949   -0.015502083876
 O    1.720570062594   -1.457814526751   -0.043610022429
 C    1.562018571231    0.934191563785    0.013104285258
 C    3.054308464837    1.118049889247    0.008273475432
 H    3.315856093917    2.186477766115    0.030927643579
 H    3.494452778427    0.659729669825   -0.890834776014
 H    3.505313671546    0.619563403941    0.880210312345
 H   -1.341377957740    2.553909790302    0.065027912850
LI   -5.954480948326   -8.074054548544   -0.159424834391
