16

 N   -0.691103536397    1.789180574751    0.045552059438
 C    0.679511876012    1.988655252592    0.041920425062
 H    1.001296172350    3.032400183468    0.063339240755
 C   -1.290818805826    0.536065415198    0.021022068782
 O   -2.508592837358    0.369122709131    0.022018149556
 N   -0.365512790215   -0.500712194644   -0.006634468207
 H   -0.760086498078   -1.439226504493   -0.027143341605
 C    1.040217588180   -0.414673482326   -0.015082518998
 O    1.728538260608   -1.438290704128   -0.043190457551
 C    1.569986769245    0.953715386408    0.013523850136
 C    3.062276662851    1.137573711870    0.008693040310
 H    3.323824291931    2.206001588738    0.031347208457
 H    3.502420976441    0.679253492448   -0.890415211136
 H    3.513281869560    0.639087226564    0.880629877223
 H   -1.333409759726    2.573433612925    0.065447477728
LI   -6.097630109123   -8.424801206583   -0.166962342879
