16

 N   -0.685127387886    1.803823441717    0.045866733097
 C    0.685488024523    2.003298119558    0.042235098721
 H    1.007272320861    3.047043050434    0.063653914414
 C   -1.284842657315    0.550708282164    0.021336742441
 O   -2.502616688847    0.383765576097    0.022332823215
 N   -0.359536641704   -0.486069327678   -0.006319794548
 H   -0.754110349567   -1.424583637527   -0.026828667946
 C    1.046193736691   -0.400030615360   -0.014767845339
 O    1.734514409119   -1.423647837162   -0.042875783892
 C    1.575962917756    0.968358253374    0.013838523795
 C    3.068252811362    1.152216578836    0.009007713969
 H    3.329800440442    2.220644455704    0.031661882116
 H    3.508397124952    0.693896359414   -0.890100537477
 H    3.519258018071    0.653730093530    0.880944550882
 H   -1.327433611215    2.588076479891    0.065762151387
LI   -6.204991979721   -8.687861200112   -0.172615474245
