8

 C    0.506892808822   -1.686939124768   -0.477218557612
 H    1.542392808822   -2.063027124768   -0.477218557612
 H   -0.026307191178   -2.067642124768    0.411118442388
 H   -0.026307191178   -2.067642124768   -1.365555557612
 C    0.465126808822   -0.130855124768   -0.477218557612
 O   -0.702069191178    0.375367875232   -0.477218557612
 O    1.589197808822    0.464562875232   -0.477218557612
 K   -0.702069191178    0.375367875232    0.722781442388
