8

 C    0.506892808822   -1.686939124768   -0.874900688955
 H    1.542392808822   -2.063027124768   -0.874900688955
 H   -0.026307191178   -2.067642124768    0.013436311045
 H   -0.026307191178   -2.067642124768   -1.763237688955
 C    0.465126808822   -0.130855124768   -0.874900688955
 O   -0.702069191178    0.375367875232   -0.874900688955
 O    1.589197808822    0.464562875232   -0.874900688955
 K   -0.702069191178    0.375367875232    1.325099311045
