8

 C    0.506892808822   -1.686939124768   -1.153278180895
 H    1.542392808822   -2.063027124768   -1.153278180895
 H   -0.026307191178   -2.067642124768   -0.264941180895
 H   -0.026307191178   -2.067642124768   -2.041615180895
 C    0.465126808822   -0.130855124768   -1.153278180895
 O   -0.702069191178    0.375367875232   -1.153278180895
 O    1.589197808822    0.464562875232   -1.153278180895
 K   -0.702069191178    0.375367875232    1.746721819105
