8

 C    0.506892808822   -1.686939124768   -2.306556361789
 H    1.542392808822   -2.063027124768   -2.306556361789
 H   -0.026307191178   -2.067642124768   -1.418219361789
 H   -0.026307191178   -2.067642124768   -3.194893361789
 C    0.465126808822   -0.130855124768   -2.306556361789
 O   -0.702069191178    0.375367875232   -2.306556361789
 O    1.589197808822    0.464562875232   -2.306556361789
 K   -0.702069191178    0.375367875232    3.493443638211
