8

 C    0.506892808822   -1.686939124768   -2.386092788058
 H    1.542392808822   -2.063027124768   -2.386092788058
 H   -0.026307191178   -2.067642124768   -1.497755788058
 H   -0.026307191178   -2.067642124768   -3.274429788058
 C    0.465126808822   -0.130855124768   -2.386092788058
 O   -0.702069191178    0.375367875232   -2.386092788058
 O    1.589197808822    0.464562875232   -2.386092788058
 K   -0.702069191178    0.375367875232    3.613907211942
