8

 C    0.506892808822   -1.686939124768   -2.664470279998
 H    1.542392808822   -2.063027124768   -2.664470279998
 H   -0.026307191178   -2.067642124768   -1.776133279998
 H   -0.026307191178   -2.067642124768   -3.552807279998
 C    0.465126808822   -0.130855124768   -2.664470279998
 O   -0.702069191178    0.375367875232   -2.664470279998
 O    1.589197808822    0.464562875232   -2.664470279998
 K   -0.702069191178    0.375367875232    4.035529720002
