8

 C    0.506892808822   -1.686939124768   -2.903079558804
 H    1.542392808822   -2.063027124768   -2.903079558804
 H   -0.026307191178   -2.067642124768   -2.014742558804
 H   -0.026307191178   -2.067642124768   -3.791416558804
 C    0.465126808822   -0.130855124768   -2.903079558804
 O   -0.702069191178    0.375367875232   -2.903079558804
 O    1.589197808822    0.464562875232   -2.903079558804
 K   -0.702069191178    0.375367875232    4.396920441196
