8

 C    0.506892808822   -1.686939124768   -3.141688837610
 H    1.542392808822   -2.063027124768   -3.141688837610
 H   -0.026307191178   -2.067642124768   -2.253351837610
 H   -0.026307191178   -2.067642124768   -4.030025837610
 C    0.465126808822   -0.130855124768   -3.141688837610
 O   -0.702069191178    0.375367875232   -3.141688837610
 O    1.589197808822    0.464562875232   -3.141688837610
 K   -0.702069191178    0.375367875232    4.758311162390
