8

 C    0.506892808822   -1.686939124768   -3.698443821490
 H    1.542392808822   -2.063027124768   -3.698443821490
 H   -0.026307191178   -2.067642124768   -2.810106821490
 H   -0.026307191178   -2.067642124768   -4.586780821490
 C    0.465126808822   -0.130855124768   -3.698443821490
 O   -0.702069191178    0.375367875232   -3.698443821490
 O    1.589197808822    0.464562875232   -3.698443821490
 K   -0.702069191178    0.375367875232    5.601556178510
