8

 C    0.506892808822   -1.686939124768   -3.897284887161
 H    1.542392808822   -2.063027124768   -3.897284887161
 H   -0.026307191178   -2.067642124768   -3.008947887161
 H   -0.026307191178   -2.067642124768   -4.785621887161
 C    0.465126808822   -0.130855124768   -3.897284887161
 O   -0.702069191178    0.375367875232   -3.897284887161
 O    1.589197808822    0.464562875232   -3.897284887161
 K   -0.702069191178    0.375367875232    5.902715112839
