12

 C   -1.695112404482    0.792663429832    0.000000000000
 C   -0.582770404482   -0.226814570168    0.000000000000
 O   -1.087101404482   -1.493267570168    0.000000000000
 C   -0.072635404482   -2.527006570168    0.000000000000
 O    0.614869595518    0.017678429832    0.000000000000
 H   -1.262542404482    1.799673429832    0.000000000000
 H   -2.327449404482    0.650091429832    0.888615000000
 H   -2.327449404482    0.650091429832   -0.888615000000
 H   -0.626732404482   -3.472130570168    0.000000000000
 H    0.557159595518   -2.440707570168    0.896190000000
 H    0.557159595518   -2.440707570168   -0.896190000000
 K    1.058212191737    1.345626976418    0.000000000000
