12

 C   -1.716950832434    0.727250566494    0.000000000000
 C   -0.604608832434   -0.292227433506    0.000000000000
 O   -1.108939832434   -1.558680433506    0.000000000000
 C   -0.094473832434   -2.592419433506    0.000000000000
 O    0.593031167566   -0.047734433506    0.000000000000
 H   -1.284380832434    1.734260566494    0.000000000000
 H   -2.349287832434    0.584678566494    0.888615000000
 H   -2.349287832434    0.584678566494   -0.888615000000
 H   -0.648570832434   -3.537543433506    0.000000000000
 H    0.535321167566   -2.506120433506    0.896190000000
 H    0.535321167566   -2.506120433506   -0.896190000000
 K    1.099708420387    1.469921048306    0.000000000000
