12

 C   -1.749708474362    0.629131271486    0.000000000000
 C   -0.637366474362   -0.390346728514    0.000000000000
 O   -1.141697474362   -1.656799728514    0.000000000000
 C   -0.127231474362   -2.690538728514    0.000000000000
 O    0.560273525638   -0.145853728514    0.000000000000
 H   -1.317138474362    1.636141271486    0.000000000000
 H   -2.382045474362    0.486559271486    0.888615000000
 H   -2.382045474362    0.486559271486   -0.888615000000
 H   -0.681328474362   -3.635662728514    0.000000000000
 H    0.502563525638   -2.604239728514    0.896190000000
 H    0.502563525638   -2.604239728514   -0.896190000000
 K    1.161952763363    1.656362156138    0.000000000000
