12

 C   -1.771546902314    0.563718408148    0.000000000000
 C   -0.659204902314   -0.455759591852    0.000000000000
 O   -1.163535902314   -1.722212591852    0.000000000000
 C   -0.149069902314   -2.755951591852    0.000000000000
 O    0.538435097686   -0.211266591852    0.000000000000
 H   -1.338976902314    1.570728408148    0.000000000000
 H   -2.403883902314    0.421146408148    0.888615000000
 H   -2.403883902314    0.421146408148   -0.888615000000
 H   -0.703166902314   -3.701075591852    0.000000000000
 H    0.480725097686   -2.669652591852    0.896190000000
 H    0.480725097686   -2.669652591852   -0.896190000000
 K    1.203448992014    1.780656228026    0.000000000000
