12

 C   -1.793385330266    0.498305544809    0.000000000000
 C   -0.681043330266   -0.521172455191    0.000000000000
 O   -1.185374330266   -1.787625455191    0.000000000000
 C   -0.170908330266   -2.821364455191    0.000000000000
 O    0.516596669734   -0.276679455191    0.000000000000
 H   -1.360815330266    1.505315544809    0.000000000000
 H   -2.425722330266    0.355733544809    0.888615000000
 H   -2.425722330266    0.355733544809   -0.888615000000
 H   -0.725005330266   -3.766488455191    0.000000000000
 H    0.458886669734   -2.735065455191    0.896190000000
 H    0.458886669734   -2.735065455191   -0.896190000000
 K    1.244945220665    1.904950299914    0.000000000000
