12

 C   -1.804304544242    0.465599113140    0.000000000000
 C   -0.691962544242   -0.553878886860    0.000000000000
 O   -1.196293544242   -1.820331886860    0.000000000000
 C   -0.181827544242   -2.854070886860    0.000000000000
 O    0.505677455758   -0.309385886860    0.000000000000
 H   -1.371734544242    1.472609113140    0.000000000000
 H   -2.436641544242    0.323027113140    0.888615000000
 H   -2.436641544242    0.323027113140   -0.888615000000
 H   -0.735924544242   -3.799194886860    0.000000000000
 H    0.447967455758   -2.767771886860    0.896190000000
 H    0.447967455758   -2.767771886860   -0.896190000000
 K    1.265693334990    1.967097335858    0.000000000000
