12

 C   -1.815223758218    0.432892681471    0.000000000000
 C   -0.702881758218   -0.586585318529    0.000000000000
 O   -1.207212758218   -1.853038318529    0.000000000000
 C   -0.192746758218   -2.886777318529    0.000000000000
 O    0.494758241782   -0.342092318529    0.000000000000
 H   -1.382653758218    1.439902681471    0.000000000000
 H   -2.447560758218    0.290320681471    0.888615000000
 H   -2.447560758218    0.290320681471   -0.888615000000
 H   -0.746843758218   -3.831901318529    0.000000000000
 H    0.437048241782   -2.800478318529    0.896190000000
 H    0.437048241782   -2.800478318529   -0.896190000000
 K    1.286441449315    2.029244371802    0.000000000000
