12

 C   -1.826142972194    0.400186249801    0.000000000000
 C   -0.713800972194   -0.619291750199    0.000000000000
 O   -1.218131972194   -1.885744750199    0.000000000000
 C   -0.203665972194   -2.919483750199    0.000000000000
 O    0.483839027806   -0.374798750199    0.000000000000
 H   -1.393572972194    1.407196249801    0.000000000000
 H   -2.458479972194    0.257614249801    0.888615000000
 H   -2.458479972194    0.257614249801   -0.888615000000
 H   -0.757762972194   -3.864607750199    0.000000000000
 H    0.426129027806   -2.833184750199    0.896190000000
 H    0.426129027806   -2.833184750199   -0.896190000000
 K    1.307189563640    2.091391407746    0.000000000000
