12

 C   -1.837062186170    0.367479818132    0.000000000000
 C   -0.724720186170   -0.651998181868    0.000000000000
 O   -1.229051186170   -1.918451181868    0.000000000000
 C   -0.214585186170   -2.952190181868    0.000000000000
 O    0.472919813830   -0.407505181868    0.000000000000
 H   -1.404492186170    1.374489818132    0.000000000000
 H   -2.469399186170    0.224907818132    0.888615000000
 H   -2.469399186170    0.224907818132   -0.888615000000
 H   -0.768682186170   -3.897314181868    0.000000000000
 H    0.415209813830   -2.865891181868    0.896190000000
 H    0.415209813830   -2.865891181868   -0.896190000000
 K    1.327937677966    2.153538443689    0.000000000000
