12

 C   -1.869819828098    0.269360523124    0.000000000000
 C   -0.757477828098   -0.750117476876    0.000000000000
 O   -1.261808828098   -2.016570476876    0.000000000000
 C   -0.247342828098   -3.050309476876    0.000000000000
 O    0.440162171902   -0.505624476876    0.000000000000
 H   -1.437249828098    1.276370523124    0.000000000000
 H   -2.502156828098    0.126788523124    0.888615000000
 H   -2.502156828098    0.126788523124   -0.888615000000
 H   -0.801439828098   -3.995433476876    0.000000000000
 H    0.382452171902   -2.964010476876    0.896190000000
 H    0.382452171902   -2.964010476876   -0.896190000000
 K    1.390182020942    2.339979551521    0.000000000000
