12

 C   -1.880739042074    0.236654091455    0.000000000000
 C   -0.768397042074   -0.782823908545    0.000000000000
 O   -1.272728042074   -2.049276908545    0.000000000000
 C   -0.258262042074   -3.083015908545    0.000000000000
 O    0.429242957926   -0.538330908545    0.000000000000
 H   -1.448169042074    1.243664091455    0.000000000000
 H   -2.513076042074    0.094082091455    0.888615000000
 H   -2.513076042074    0.094082091455   -0.888615000000
 H   -0.812359042074   -4.028139908545    0.000000000000
 H    0.371532957926   -2.996716908545    0.896190000000
 H    0.371532957926   -2.996716908545   -0.896190000000
 K    1.410930135267    2.402126587465    0.000000000000
