12

 C   -1.891658256050    0.203947659786    0.000000000000
 C   -0.779316256050   -0.815530340214    0.000000000000
 O   -1.283647256050   -2.081983340214    0.000000000000
 C   -0.269181256050   -3.115722340214    0.000000000000
 O    0.418323743950   -0.571037340214    0.000000000000
 H   -1.459088256050    1.210957659786    0.000000000000
 H   -2.523995256050    0.061375659786    0.888615000000
 H   -2.523995256050    0.061375659786   -0.888615000000
 H   -0.823278256050   -4.060846340214    0.000000000000
 H    0.360613743950   -3.029423340214    0.896190000000
 H    0.360613743950   -3.029423340214   -0.896190000000
 K    1.431678249592    2.464273623409    0.000000000000
