12

 C   -1.913496684002    0.138534796447    0.000000000000
 C   -0.801154684002   -0.880943203553    0.000000000000
 O   -1.305485684002   -2.147396203553    0.000000000000
 C   -0.291019684002   -3.181135203553    0.000000000000
 O    0.396485315998   -0.636450203553    0.000000000000
 H   -1.480926684002    1.145544796447    0.000000000000
 H   -2.545833684002   -0.004037203553    0.888615000000
 H   -2.545833684002   -0.004037203553   -0.888615000000
 H   -0.845116684002   -4.126259203553    0.000000000000
 H    0.338775315998   -3.094836203553    0.896190000000
 H    0.338775315998   -3.094836203553   -0.896190000000
 K    1.473174478243    2.588567695297    0.000000000000
