12

 C   -1.946254325930    0.040415501439    0.000000000000
 C   -0.833912325930   -0.979062498561    0.000000000000
 O   -1.338243325930   -2.245515498561    0.000000000000
 C   -0.323777325930   -3.279254498561    0.000000000000
 O    0.363727674070   -0.734569498561    0.000000000000
 H   -1.513684325930    1.047425501439    0.000000000000
 H   -2.578591325930   -0.102156498561    0.888615000000
 H   -2.578591325930   -0.102156498561   -0.888615000000
 H   -0.877874325930   -4.224378498561    0.000000000000
 H    0.306017674070   -3.192955498561    0.896190000000
 H    0.306017674070   -3.192955498561   -0.896190000000
 K    1.535418821219    2.775008803129    0.000000000000
