12

 C   -1.989931181834   -0.090410225238    0.000000000000
 C   -0.877589181834   -1.109888225238    0.000000000000
 O   -1.381920181834   -2.376341225238    0.000000000000
 C   -0.367454181834   -3.410080225238    0.000000000000
 O    0.320050818166   -0.865395225238    0.000000000000
 H   -1.557361181834    0.916599774762    0.000000000000
 H   -2.622268181834   -0.232982225238    0.888615000000
 H   -2.622268181834   -0.232982225238   -0.888615000000
 H   -0.921551181834   -4.355204225238    0.000000000000
 H    0.262340818166   -3.323781225238    0.896190000000
 H    0.262340818166   -3.323781225238   -0.896190000000
 K    1.618411278520    3.023596946905    0.000000000000
