12

 C   -2.011769609786   -0.155823088576    0.000000000000
 C   -0.899427609786   -1.175301088576    0.000000000000
 O   -1.403758609786   -2.441754088576    0.000000000000
 C   -0.389292609786   -3.475493088576    0.000000000000
 O    0.298212390214   -0.930808088576    0.000000000000
 H   -1.579199609786    0.851186911424    0.000000000000
 H   -2.644106609786   -0.298395088576    0.888615000000
 H   -2.644106609786   -0.298395088576   -0.888615000000
 H   -0.943389609786   -4.420617088576    0.000000000000
 H    0.240502390214   -3.389194088576    0.896190000000
 H    0.240502390214   -3.389194088576   -0.896190000000
 K    1.659907507171    3.147891018793    0.000000000000
