12

 C   -2.033608037738   -0.221235951915    0.000000000000
 C   -0.921266037738   -1.240713951915    0.000000000000
 O   -1.425597037738   -2.507166951915    0.000000000000
 C   -0.411131037738   -3.540905951915    0.000000000000
 O    0.276373962262   -0.996220951915    0.000000000000
 H   -1.601038037738    0.785774048085    0.000000000000
 H   -2.665945037738   -0.363807951915    0.888615000000
 H   -2.665945037738   -0.363807951915   -0.888615000000
 H   -0.965228037738   -4.486029951915    0.000000000000
 H    0.218663962262   -3.454606951915    0.896190000000
 H    0.218663962262   -3.454606951915   -0.896190000000
 K    1.701403735822    3.272185090681    0.000000000000
