12

 C   -2.066365679666   -0.319355246922    0.000000000000
 C   -0.954023679666   -1.338833246922    0.000000000000
 O   -1.458354679666   -2.605286246922    0.000000000000
 C   -0.443888679666   -3.639025246922    0.000000000000
 O    0.243616320334   -1.094340246922    0.000000000000
 H   -1.633795679666    0.687654753078    0.000000000000
 H   -2.698702679666   -0.461927246922    0.888615000000
 H   -2.698702679666   -0.461927246922   -0.888615000000
 H   -0.997985679666   -4.584149246922    0.000000000000
 H    0.185906320334   -3.552726246922    0.896190000000
 H    0.185906320334   -3.552726246922   -0.896190000000
 K    1.763648078798    3.458626198513    0.000000000000
