12

 C   -2.088204107618   -0.384768110261    0.000000000000
 C   -0.975862107618   -1.404246110261    0.000000000000
 O   -1.480193107618   -2.670699110261    0.000000000000
 C   -0.465727107618   -3.704438110261    0.000000000000
 O    0.221777892382   -1.159753110261    0.000000000000
 H   -1.655634107618    0.622241889739    0.000000000000
 H   -2.720541107618   -0.527340110261    0.888615000000
 H   -2.720541107618   -0.527340110261   -0.888615000000
 H   -1.019824107618   -4.649562110261    0.000000000000
 H    0.164067892382   -3.618139110261    0.896190000000
 H    0.164067892382   -3.618139110261   -0.896190000000
 K    1.805144307448    3.582920270401    0.000000000000
