12

 C   -2.099123321594   -0.417474541930    0.000000000000
 C   -0.986781321594   -1.436952541930    0.000000000000
 O   -1.491112321594   -2.703405541930    0.000000000000
 C   -0.476646321594   -3.737144541930    0.000000000000
 O    0.210858678406   -1.192459541930    0.000000000000
 H   -1.666553321594    0.589535458070    0.000000000000
 H   -2.731460321594   -0.560046541930    0.888615000000
 H   -2.731460321594   -0.560046541930   -0.888615000000
 H   -1.030743321594   -4.682268541930    0.000000000000
 H    0.153148678406   -3.650845541930    0.896190000000
 H    0.153148678406   -3.650845541930   -0.896190000000
 K    1.825892421774    3.645067306345    0.000000000000
