12

 C   -2.131880963522   -0.515593836938    0.000000000000
 C   -1.019538963522   -1.535071836938    0.000000000000
 O   -1.523869963522   -2.801524836938    0.000000000000
 C   -0.509403963522   -3.835263836938    0.000000000000
 O    0.178101036478   -1.290578836938    0.000000000000
 H   -1.699310963522    0.491416163062    0.000000000000
 H   -2.764217963522   -0.658165836938    0.888615000000
 H   -2.764217963522   -0.658165836938   -0.888615000000
 H   -1.063500963522   -4.780387836938    0.000000000000
 H    0.120391036478   -3.748964836938    0.896190000000
 H    0.120391036478   -3.748964836938   -0.896190000000
 K    1.888136764749    3.831508414177    0.000000000000
