12

 C   -2.164638605450   -0.613713131946    0.000000000000
 C   -1.052296605450   -1.633191131946    0.000000000000
 O   -1.556627605450   -2.899644131946    0.000000000000
 C   -0.542161605450   -3.933383131946    0.000000000000
 O    0.145343394550   -1.388698131946    0.000000000000
 H   -1.732068605450    0.393296868054    0.000000000000
 H   -2.796975605450   -0.756285131946    0.888615000000
 H   -2.796975605450   -0.756285131946   -0.888615000000
 H   -1.096258605450   -4.878507131946    0.000000000000
 H    0.087633394550   -3.847084131946    0.896190000000
 H    0.087633394550   -3.847084131946   -0.896190000000
 K    1.950381107725    4.017949522009    0.000000000000
