12

 C   -2.175557819426   -0.646419563615    0.000000000000
 C   -1.063215819426   -1.665897563615    0.000000000000
 O   -1.567546819426   -2.932350563615    0.000000000000
 C   -0.553080819426   -3.966089563615    0.000000000000
 O    0.134424180574   -1.421404563615    0.000000000000
 H   -1.742987819426    0.360590436385    0.000000000000
 H   -2.807894819426   -0.788991563615    0.888615000000
 H   -2.807894819426   -0.788991563615   -0.888615000000
 H   -1.107177819426   -4.911213563615    0.000000000000
 H    0.076714180574   -3.879790563615    0.896190000000
 H    0.076714180574   -3.879790563615   -0.896190000000
 K    1.971129222051    4.080096557953    0.000000000000
