12

 C   -2.197396247378   -0.711832426953    0.000000000000
 C   -1.085054247378   -1.731310426953    0.000000000000
 O   -1.589385247378   -2.997763426953    0.000000000000
 C   -0.574919247378   -4.031502426953    0.000000000000
 O    0.112585752622   -1.486817426953    0.000000000000
 H   -1.764826247378    0.295177573047    0.000000000000
 H   -2.829733247378   -0.854404426953    0.888615000000
 H   -2.829733247378   -0.854404426953   -0.888615000000
 H   -1.129016247378   -4.976626426953    0.000000000000
 H    0.054875752622   -3.945203426953    0.896190000000
 H    0.054875752622   -3.945203426953   -0.896190000000
 K    2.012625450701    4.204390629841    0.000000000000
