12

 C   -2.208315461354   -0.744538858623    0.000000000000
 C   -1.095973461354   -1.764016858623    0.000000000000
 O   -1.600304461354   -3.030469858623    0.000000000000
 C   -0.585838461354   -4.064208858623    0.000000000000
 O    0.101666538646   -1.519523858623    0.000000000000
 H   -1.775745461354    0.262471141377    0.000000000000
 H   -2.840652461354   -0.887110858623    0.888615000000
 H   -2.840652461354   -0.887110858623   -0.888615000000
 H   -1.139935461354   -5.009332858623    0.000000000000
 H    0.043956538646   -3.977909858623    0.896190000000
 H    0.043956538646   -3.977909858623   -0.896190000000
 K    2.033373565027    4.266537665785    0.000000000000
