12

 C   -2.219234675330   -0.777245290292    0.000000000000
 C   -1.106892675330   -1.796723290292    0.000000000000
 O   -1.611223675330   -3.063176290292    0.000000000000
 C   -0.596757675330   -4.096915290292    0.000000000000
 O    0.090747324670   -1.552230290292    0.000000000000
 H   -1.786664675330    0.229764709708    0.000000000000
 H   -2.851571675330   -0.919817290292    0.888615000000
 H   -2.851571675330   -0.919817290292   -0.888615000000
 H   -1.150854675330   -5.042039290292    0.000000000000
 H    0.033037324670   -4.010616290292    0.896190000000
 H    0.033037324670   -4.010616290292   -0.896190000000
 K    2.054121679352    4.328684701729    0.000000000000
