12

 C   -2.230153889306   -0.809951721961    0.000000000000
 C   -1.117811889306   -1.829429721961    0.000000000000
 O   -1.622142889306   -3.095882721961    0.000000000000
 C   -0.607676889306   -4.129621721961    0.000000000000
 O    0.079828110694   -1.584936721961    0.000000000000
 H   -1.797583889306    0.197058278039    0.000000000000
 H   -2.862490889306   -0.952523721961    0.888615000000
 H   -2.862490889306   -0.952523721961   -0.888615000000
 H   -1.161773889306   -5.074745721961    0.000000000000
 H    0.022118110694   -4.043322721961    0.896190000000
 H    0.022118110694   -4.043322721961   -0.896190000000
 K    2.074869793677    4.390831737673    0.000000000000
