12

 C   -2.241073103282   -0.842658153630    0.000000000000
 C   -1.128731103282   -1.862136153630    0.000000000000
 O   -1.633062103282   -3.128589153630    0.000000000000
 C   -0.618596103282   -4.162328153630    0.000000000000
 O    0.068908896718   -1.617643153630    0.000000000000
 H   -1.808503103282    0.164351846370    0.000000000000
 H   -2.873410103282   -0.985230153630    0.888615000000
 H   -2.873410103282   -0.985230153630   -0.888615000000
 H   -1.172693103282   -5.107452153630    0.000000000000
 H    0.011198896718   -4.076029153630    0.896190000000
 H    0.011198896718   -4.076029153630   -0.896190000000
 K    2.095617908003    4.452978773617    0.000000000000
