12

 C   -2.262911531234   -0.908071016969    0.000000000000
 C   -1.150569531234   -1.927549016969    0.000000000000
 O   -1.654900531234   -3.194002016969    0.000000000000
 C   -0.640434531234   -4.227741016969    0.000000000000
 O    0.047070468766   -1.683056016969    0.000000000000
 H   -1.830341531234    0.098938983031    0.000000000000
 H   -2.895248531234   -1.050643016969    0.888615000000
 H   -2.895248531234   -1.050643016969   -0.888615000000
 H   -1.194531531234   -5.172865016969    0.000000000000
 H   -0.010639531234   -4.141442016969    0.896190000000
 H   -0.010639531234   -4.141442016969   -0.896190000000
 K    2.137114136653    4.577272845505    0.000000000000
