12

 C   -2.361184457018   -1.202428901992    0.000000000000
 C   -1.248842457018   -2.221906901992    0.000000000000
 O   -1.753173457018   -3.488359901992    0.000000000000
 C   -0.738707457018   -4.522098901992    0.000000000000
 O   -0.051202457018   -1.977413901992    0.000000000000
 H   -1.928614457018   -0.195418901992    0.000000000000
 H   -2.993521457018   -1.345000901992    0.888615000000
 H   -2.993521457018   -1.345000901992   -0.888615000000
 H   -1.292804457018   -5.467222901992    0.000000000000
 H   -0.108912457018   -4.435799901992    0.896190000000
 H   -0.108912457018   -4.435799901992   -0.896190000000
 K    2.323847165581    5.136596169001    0.000000000000
