12

 C   -2.383022884970   -1.267841765331    0.000000000000
 C   -1.270680884970   -2.287319765331    0.000000000000
 O   -1.775011884970   -3.553772765331    0.000000000000
 C   -0.760545884970   -4.587511765331    0.000000000000
 O   -0.073040884970   -2.042826765331    0.000000000000
 H   -1.950452884970   -0.260831765331    0.000000000000
 H   -3.015359884970   -1.410413765331    0.888615000000
 H   -3.015359884970   -1.410413765331   -0.888615000000
 H   -1.314642884970   -5.532635765331    0.000000000000
 H   -0.130750884970   -4.501212765331    0.896190000000
 H   -0.130750884970   -4.501212765331   -0.896190000000
 K    2.365343394232    5.260890240889    0.000000000000
