12

 C   -2.426699740874   -1.398667492008    0.000000000000
 C   -1.314357740874   -2.418145492008    0.000000000000
 O   -1.818688740874   -3.684598492008    0.000000000000
 C   -0.804222740874   -4.718337492008    0.000000000000
 O   -0.116717740874   -2.173652492008    0.000000000000
 H   -1.994129740874   -0.391657492008    0.000000000000
 H   -3.059036740874   -1.541239492008    0.888615000000
 H   -3.059036740874   -1.541239492008   -0.888615000000
 H   -1.358319740874   -5.663461492008    0.000000000000
 H   -0.174427740874   -4.632038492008    0.896190000000
 H   -0.174427740874   -4.632038492008   -0.896190000000
 K    2.448335851533    5.509478384665    0.000000000000
