12

 C   -2.448538168826   -1.464080355346    0.000000000000
 C   -1.336196168826   -2.483558355346    0.000000000000
 O   -1.840527168826   -3.750011355346    0.000000000000
 C   -0.826061168826   -4.783750355346    0.000000000000
 O   -0.138556168826   -2.239065355346    0.000000000000
 H   -2.015968168826   -0.457070355346    0.000000000000
 H   -3.080875168826   -1.606652355346    0.888615000000
 H   -3.080875168826   -1.606652355346   -0.888615000000
 H   -1.380158168826   -5.728874355346    0.000000000000
 H   -0.196266168826   -4.697451355346    0.896190000000
 H   -0.196266168826   -4.697451355346   -0.896190000000
 K    2.489832080184    5.633772456553    0.000000000000
