12

 C   -2.481295810754   -1.562199650354    0.000000000000
 C   -1.368953810754   -2.581677650354    0.000000000000
 O   -1.873284810754   -3.848130650354    0.000000000000
 C   -0.858818810754   -4.881869650354    0.000000000000
 O   -0.171313810754   -2.337184650354    0.000000000000
 H   -2.048725810754   -0.555189650354    0.000000000000
 H   -3.113632810754   -1.704771650354    0.888615000000
 H   -3.113632810754   -1.704771650354   -0.888615000000
 H   -1.412915810754   -5.826993650354    0.000000000000
 H   -0.229023810754   -4.795570650354    0.896190000000
 H   -0.229023810754   -4.795570650354   -0.896190000000
 K    2.552076423160    5.820213564385    0.000000000000
