12

 C   -2.514053452682   -1.660318945362    0.000000000000
 C   -1.401711452682   -2.679796945362    0.000000000000
 O   -1.906042452682   -3.946249945362    0.000000000000
 C   -0.891576452682   -4.979988945362    0.000000000000
 O   -0.204071452682   -2.435303945362    0.000000000000
 H   -2.081483452682   -0.653308945362    0.000000000000
 H   -3.146390452682   -1.802890945362    0.888615000000
 H   -3.146390452682   -1.802890945362   -0.888615000000
 H   -1.445673452682   -5.925112945362    0.000000000000
 H   -0.261781452682   -4.893689945362    0.896190000000
 H   -0.261781452682   -4.893689945362   -0.896190000000
 K    2.614320766136    6.006654672217    0.000000000000
