12

 C   -2.535891880634   -1.725731808700    0.000000000000
 C   -1.423549880634   -2.745209808700    0.000000000000
 O   -1.927880880634   -4.011662808700    0.000000000000
 C   -0.913414880634   -5.045401808700    0.000000000000
 O   -0.225909880634   -2.500716808700    0.000000000000
 H   -2.103321880634   -0.718721808700    0.000000000000
 H   -3.168228880634   -1.868303808700    0.888615000000
 H   -3.168228880634   -1.868303808700   -0.888615000000
 H   -1.467511880634   -5.990525808700    0.000000000000
 H   -0.283619880634   -4.959102808700    0.896190000000
 H   -0.283619880634   -4.959102808700   -0.896190000000
 K    2.655816994786    6.130948744105    0.000000000000
