12

 C   -2.557730308586   -1.791144672039    0.000000000000
 C   -1.445388308586   -2.810622672039    0.000000000000
 O   -1.949719308586   -4.077075672039    0.000000000000
 C   -0.935253308586   -5.110814672039    0.000000000000
 O   -0.247748308586   -2.566129672039    0.000000000000
 H   -2.125160308586   -0.784134672039    0.000000000000
 H   -3.190067308586   -1.933716672039    0.888615000000
 H   -3.190067308586   -1.933716672039   -0.888615000000
 H   -1.489350308586   -6.055938672039    0.000000000000
 H   -0.305458308586   -5.024515672039    0.896190000000
 H   -0.305458308586   -5.024515672039   -0.896190000000
 K    2.697313223437    6.255242815993    0.000000000000
