12

 C   -2.601407164490   -1.921970398716    0.000000000000
 C   -1.489065164490   -2.941448398716    0.000000000000
 O   -1.993396164490   -4.207901398716    0.000000000000
 C   -0.978930164490   -5.241640398716    0.000000000000
 O   -0.291425164490   -2.696955398716    0.000000000000
 H   -2.168837164490   -0.914960398716    0.000000000000
 H   -3.233744164490   -2.064542398716    0.888615000000
 H   -3.233744164490   -2.064542398716   -0.888615000000
 H   -1.533027164490   -6.186764398716    0.000000000000
 H   -0.349135164490   -5.155341398716    0.896190000000
 H   -0.349135164490   -5.155341398716   -0.896190000000
 K    2.780305680738    6.503830959769    0.000000000000
