12

 C   -2.612326378466   -1.954676830385    0.000000000000
 C   -1.499984378466   -2.974154830385    0.000000000000
 O   -2.004315378466   -4.240607830385    0.000000000000
 C   -0.989849378466   -5.274346830385    0.000000000000
 O   -0.302344378466   -2.729661830385    0.000000000000
 H   -2.179756378466   -0.947666830385    0.000000000000
 H   -3.244663378466   -2.097248830385    0.888615000000
 H   -3.244663378466   -2.097248830385   -0.888615000000
 H   -1.543946378466   -6.219470830385    0.000000000000
 H   -0.360054378466   -5.188047830385    0.896190000000
 H   -0.360054378466   -5.188047830385   -0.896190000000
 K    2.801053795064    6.565977995713    0.000000000000
