18

 C   -2.299676985661    0.909307162201    0.000000000000
 H   -3.194836985661    1.540857162201    0.000000000000
 H   -2.325356985661    0.261147162201    0.889410000000
 H   -2.325356985661    0.261147162201   -0.889410000000
 C   -1.073526985661    1.788277162201    0.000000000000
 O   -0.998356985661    2.983037162201    0.000000000000
 O    0.120893014339    0.978947162201    0.000000000000
 H    0.858253014339    1.624367162201    0.000000000000
 K   -0.091826985661   -0.743592837799    2.025570000000
 K   -0.091826985661   -0.743592837799   -2.025570000000
 O   -0.001672713709   -0.013513236156    0.000000000000
 H   -0.739034884349   -0.658927703153    0.000000000000
 C    1.192752351273   -0.822846668150    0.000000000000
 O    1.117574945773   -2.017603820086    0.000000000000
 C    2.418901972129    0.056119730398    0.000000000000
 H    3.314069028510   -0.575435431143    0.000000000000
 H    2.444583798460    0.704273479088   -0.889405326190
 H    2.444583798460    0.704273479088    0.889405326190
