18

 C   -2.292245005443    0.969486677021    0.000000000000
 H   -3.187405005443    1.601036677021    0.000000000000
 H   -2.317925005443    0.321326677021    0.889410000000
 H   -2.317925005443    0.321326677021   -0.889410000000
 C   -1.066095005443    1.848456677021    0.000000000000
 O   -0.990925005443    3.043216677021    0.000000000000
 O    0.128324994557    1.039126677021    0.000000000000
 H    0.865684994557    1.684546677021    0.000000000000
 K   -0.084395005443   -0.683413322979    2.025570000000
 K   -0.084395005443   -0.683413322979   -2.025570000000
 O   -0.018753879101   -0.151825801008    0.000000000000
 H   -0.756116049741   -0.797240268004    0.000000000000
 C    1.175671185881   -0.961159233002    0.000000000000
 O    1.100493780381   -2.155916384938    0.000000000000
 C    2.401820806737   -0.082192834454    0.000000000000
 H    3.296987863118   -0.713747995995    0.000000000000
 H    2.427502633068    0.565960914236   -0.889405326190
 H    2.427502633068    0.565960914236    0.889405326190
