18

 C   -2.288529015334    0.999576434431    0.000000000000
 H   -3.183689015334    1.631126434431    0.000000000000
 H   -2.314209015334    0.351416434431    0.889410000000
 H   -2.314209015334    0.351416434431   -0.889410000000
 C   -1.062379015334    1.878546434431    0.000000000000
 O   -0.987209015334    3.073306434431    0.000000000000
 O    0.132040984666    1.069216434431    0.000000000000
 H    0.869400984666    1.714636434431    0.000000000000
 K   -0.080679015334   -0.653323565569    2.025570000000
 K   -0.080679015334   -0.653323565569   -2.025570000000
 O   -0.027294461797   -0.220982083434    0.000000000000
 H   -0.764656632437   -0.866396550430    0.000000000000
 C    1.167130603185   -1.030315515427    0.000000000000
 O    1.091953197685   -2.225072667363    0.000000000000
 C    2.393280224041   -0.151349116879    0.000000000000
 H    3.288447280422   -0.782904278421    0.000000000000
 H    2.418962050372    0.496804631811   -0.889405326190
 H    2.418962050372    0.496804631811    0.889405326190
