18

 C   -2.284813025225    1.029666191841    0.000000000000
 H   -3.179973025225    1.661216191841    0.000000000000
 H   -2.310493025225    0.381506191841    0.889410000000
 H   -2.310493025225    0.381506191841   -0.889410000000
 C   -1.058663025225    1.908636191841    0.000000000000
 O   -0.983493025225    3.103396191841    0.000000000000
 O    0.135756974775    1.099306191841    0.000000000000
 H    0.873116974775    1.744726191841    0.000000000000
 K   -0.076963025225   -0.623233808159    2.025570000000
 K   -0.076963025225   -0.623233808159   -2.025570000000
 O   -0.035835044493   -0.290138365859    0.000000000000
 H   -0.773197215133   -0.935552832856    0.000000000000
 C    1.158590020489   -1.099471797853    0.000000000000
 O    1.083412614989   -2.294228949789    0.000000000000
 C    2.384739641345   -0.220505399305    0.000000000000
 H    3.279906697726   -0.852060560846    0.000000000000
 H    2.410421467676    0.427648349385   -0.889405326190
 H    2.410421467676    0.427648349385    0.889405326190
