18

 C   -2.281097035116    1.059755949251    0.000000000000
 H   -3.176257035116    1.691305949251    0.000000000000
 H   -2.306777035116    0.411595949251    0.889410000000
 H   -2.306777035116    0.411595949251   -0.889410000000
 C   -1.054947035116    1.938725949251    0.000000000000
 O   -0.979777035116    3.133485949251    0.000000000000
 O    0.139472964884    1.129395949251    0.000000000000
 H    0.876832964884    1.774815949251    0.000000000000
 K   -0.073247035116   -0.593144050749    2.025570000000
 K   -0.073247035116   -0.593144050749   -2.025570000000
 O   -0.044375627189   -0.359294648285    0.000000000000
 H   -0.781737797829   -1.004709115282    0.000000000000
 C    1.150049437793   -1.168628080279    0.000000000000
 O    1.074872032293   -2.363385232215    0.000000000000
 C    2.376199058649   -0.289661681731    0.000000000000
 H    3.271366115030   -0.921216843272    0.000000000000
 H    2.401880884980    0.358492066959   -0.889405326190
 H    2.401880884980    0.358492066959    0.889405326190
