18

 C   -2.277381045007    1.089845706661    0.000000000000
 H   -3.172541045007    1.721395706661    0.000000000000
 H   -2.303061045007    0.441685706661    0.889410000000
 H   -2.303061045007    0.441685706661   -0.889410000000
 C   -1.051231045007    1.968815706661    0.000000000000
 O   -0.976061045007    3.163575706661    0.000000000000
 O    0.143188954993    1.159485706661    0.000000000000
 H    0.880548954993    1.804905706661    0.000000000000
 K   -0.069531045007   -0.563054293339    2.025570000000
 K   -0.069531045007   -0.563054293339   -2.025570000000
 O   -0.052916209885   -0.428450930711    0.000000000000
 H   -0.790278380525   -1.073865397708    0.000000000000
 C    1.141508855097   -1.237784362705    0.000000000000
 O    1.066331449597   -2.432541514641    0.000000000000
 C    2.367658475953   -0.358817964157    0.000000000000
 H    3.262825532334   -0.990373125698    0.000000000000
 H    2.393340302284    0.289335784533   -0.889405326190
 H    2.393340302284    0.289335784533    0.889405326190
