18

 C   -2.273665054898    1.119935464071    0.000000000000
 H   -3.168825054898    1.751485464071    0.000000000000
 H   -2.299345054898    0.471775464071    0.889410000000
 H   -2.299345054898    0.471775464071   -0.889410000000
 C   -1.047515054898    1.998905464071    0.000000000000
 O   -0.972345054898    3.193665464071    0.000000000000
 O    0.146904945102    1.189575464071    0.000000000000
 H    0.884264945102    1.834995464071    0.000000000000
 K   -0.065815054898   -0.532964535929    2.025570000000
 K   -0.065815054898   -0.532964535929   -2.025570000000
 O   -0.061456792581   -0.497607213137    0.000000000000
 H   -0.798818963221   -1.143021680133    0.000000000000
 C    1.132968272401   -1.306940645131    0.000000000000
 O    1.057790866901   -2.501697797067    0.000000000000
 C    2.359117893257   -0.427974246583    0.000000000000
 H    3.254284949638   -1.059529408124    0.000000000000
 H    2.384799719588    0.220179502107   -0.889405326190
 H    2.384799719588    0.220179502107    0.889405326190
