18

 C   -2.266233074681    1.180114978891    0.000000000000
 H   -3.161393074681    1.811664978891    0.000000000000
 H   -2.291913074681    0.531954978891    0.889410000000
 H   -2.291913074681    0.531954978891   -0.889410000000
 C   -1.040083074681    2.059084978891    0.000000000000
 O   -0.964913074681    3.253844978891    0.000000000000
 O    0.154336925319    1.249754978891    0.000000000000
 H    0.891696925319    1.895174978891    0.000000000000
 K   -0.058383074681   -0.472785021109    2.025570000000
 K   -0.058383074681   -0.472785021109   -2.025570000000
 O   -0.078537957972   -0.635919777988    0.000000000000
 H   -0.815900128613   -1.281334244985    0.000000000000
 C    1.115887107010   -1.445253209982    0.000000000000
 O    1.040709701509   -2.640010361918    0.000000000000
 C    2.342036727865   -0.566286811434    0.000000000000
 H    3.237203784246   -1.197841972975    0.000000000000
 H    2.367718554196    0.081866937256   -0.889405326190
 H    2.367718554196    0.081866937256    0.889405326190
