18

 C   -1.965237875862    3.617385329097    0.000000000000
 H   -2.860397875862    4.248935329097    0.000000000000
 H   -1.990917875862    2.969225329097    0.889410000000
 H   -1.990917875862    2.969225329097   -0.889410000000
 C   -0.739087875862    4.496355329097    0.000000000000
 O   -0.663917875862    5.691115329097    0.000000000000
 O    0.455332124138    3.687025329097    0.000000000000
 H    1.192692124138    4.332445329097    0.000000000000
 K    0.242612124138    1.964485329097    2.025570000000
 K    0.242612124138    1.964485329097   -2.025570000000
 O   -0.770325156345   -6.237578654478    0.000000000000
 H   -1.507687326985   -6.882993121475    0.000000000000
 C    0.424099908637   -7.046912086472    0.000000000000
 O    0.348922503137   -8.241669238408    0.000000000000
 C    1.650249529493   -6.167945687924    0.000000000000
 H    2.545416585874   -6.799500849465    0.000000000000
 H    1.675931355824   -5.519791939234   -0.889405326190
 H    1.675931355824   -5.519791939234    0.889405326190
