18

 C   -2.258801094463    1.240294493711    0.000000000000
 H   -3.153961094463    1.871844493711    0.000000000000
 H   -2.284481094463    0.592134493711    0.889410000000
 H   -2.284481094463    0.592134493711   -0.889410000000
 C   -1.032651094463    2.119264493711    0.000000000000
 O   -0.957481094463    3.314024493711    0.000000000000
 O    0.161768905537    1.309934493711    0.000000000000
 H    0.899128905537    1.955354493711    0.000000000000
 K   -0.050951094463   -0.412605506289    2.025570000000
 K   -0.050951094463   -0.412605506289   -2.025570000000
 O   -0.095619123364   -0.774232342840    0.000000000000
 H   -0.832981294005   -1.419646809837    0.000000000000
 C    1.098805941618   -1.583565774834    0.000000000000
 O    1.023628536117   -2.778322926770    0.000000000000
 C    2.324955562473   -0.704599376286    0.000000000000
 H    3.220122618854   -1.336154537827    0.000000000000
 H    2.350637388804   -0.056445627596   -0.889405326190
 H    2.350637388804   -0.056445627596    0.889405326190
