18

 C   -2.251369114245    1.300474008531    0.000000000000
 H   -3.146529114245    1.932024008531    0.000000000000
 H   -2.277049114245    0.652314008531    0.889410000000
 H   -2.277049114245    0.652314008531   -0.889410000000
 C   -1.025219114245    2.179444008531    0.000000000000
 O   -0.950049114245    3.374204008531    0.000000000000
 O    0.169200885755    1.370114008531    0.000000000000
 H    0.906560885755    2.015534008531    0.000000000000
 K   -0.043519114245   -0.352425991469    2.025570000000
 K   -0.043519114245   -0.352425991469   -2.025570000000
 O   -0.112700288756   -0.912544907692    0.000000000000
 H   -0.850062459397   -1.557959374688    0.000000000000
 C    1.081724776226   -1.721878339685    0.000000000000
 O    1.006547370725   -2.916635491621    0.000000000000
 C    2.307874397081   -0.842911941137    0.000000000000
 H    3.203041453463   -1.474467102679    0.000000000000
 H    2.333556223412   -0.194758192447   -0.889405326190
 H    2.333556223412   -0.194758192447    0.889405326190
