18

 C   -2.236505153810    1.420833038171    0.000000000000
 H   -3.131665153810    2.052383038171    0.000000000000
 H   -2.262185153810    0.772673038171    0.889410000000
 H   -2.262185153810    0.772673038171   -0.889410000000
 C   -1.010355153810    2.299803038171    0.000000000000
 O   -0.935185153810    3.494563038171    0.000000000000
 O    0.184064846190    1.490473038171    0.000000000000
 H    0.921424846190    2.135893038171    0.000000000000
 K   -0.028655153810   -0.232066961829    2.025570000000
 K   -0.028655153810   -0.232066961829   -2.025570000000
 O   -0.146862619540   -1.189170037395    0.000000000000
 H   -0.884224790181   -1.834584504391    0.000000000000
 C    1.047562445442   -1.998503469389    0.000000000000
 O    0.972385039942   -3.193260621325    0.000000000000
 C    2.273712066297   -1.119537070841    0.000000000000
 H    3.168879122679   -1.751092232382    0.000000000000
 H    2.299393892629   -0.471383322151   -0.889405326190
 H    2.299393892629   -0.471383322151    0.889405326190
