18

 C   -2.225357183483    1.511102310400    0.000000000000
 H   -3.120517183483    2.142652310400    0.000000000000
 H   -2.251037183483    0.862942310400    0.889410000000
 H   -2.251037183483    0.862942310400   -0.889410000000
 C   -0.999207183483    2.390072310400    0.000000000000
 O   -0.924037183483    3.584832310400    0.000000000000
 O    0.195212816517    1.580742310400    0.000000000000
 H    0.932572816517    2.226162310400    0.000000000000
 K   -0.017507183483   -0.141797689600    2.025570000000
 K   -0.017507183483   -0.141797689600   -2.025570000000
 O   -0.172484367628   -1.396638884672    0.000000000000
 H   -0.909846538268   -2.042053351669    0.000000000000
 C    1.021940697354   -2.205972316666    0.000000000000
 O    0.946763291854   -3.400729468602    0.000000000000
 C    2.248090318209   -1.327005918118    0.000000000000
 H    3.143257374591   -1.958561079659    0.000000000000
 H    2.273772144541   -0.678852169428   -0.889405326190
 H    2.273772144541   -0.678852169428    0.889405326190
