18

 C   -2.221641193374    1.541192067810    0.000000000000
 H   -3.116801193374    2.172742067810    0.000000000000
 H   -2.247321193374    0.893032067810    0.889410000000
 H   -2.247321193374    0.893032067810   -0.889410000000
 C   -0.995491193374    2.420162067810    0.000000000000
 O   -0.920321193374    3.614922067810    0.000000000000
 O    0.198928806626    1.610832067810    0.000000000000
 H    0.936288806626    2.256252067810    0.000000000000
 K   -0.013791193374   -0.111707932190    2.025570000000
 K   -0.013791193374   -0.111707932190   -2.025570000000
 O   -0.181024950324   -1.465795167098    0.000000000000
 H   -0.918387120964   -2.111209634095    0.000000000000
 C    1.013400114658   -2.275128599092    0.000000000000
 O    0.938222709158   -3.469885751028    0.000000000000
 C    2.239549735514   -1.396162200544    0.000000000000
 H    3.134716791895   -2.027717362085    0.000000000000
 H    2.265231561845   -0.748008451854   -0.889405326190
 H    2.265231561845   -0.748008451854    0.889405326190
