18

 C   -2.214209213156    1.601371582630    0.000000000000
 H   -3.109369213156    2.232921582630    0.000000000000
 H   -2.239889213156    0.953211582630    0.889410000000
 H   -2.239889213156    0.953211582630   -0.889410000000
 C   -0.988059213156    2.480341582630    0.000000000000
 O   -0.912889213156    3.675101582630    0.000000000000
 O    0.206360786844    1.671011582630    0.000000000000
 H    0.943720786844    2.316431582630    0.000000000000
 K   -0.006359213156   -0.051528417370    2.025570000000
 K   -0.006359213156   -0.051528417370   -2.025570000000
 O   -0.198106115716   -1.604107731950    0.000000000000
 H   -0.935468286356   -2.249522198946    0.000000000000
 C    0.996318949266   -2.413441163943    0.000000000000
 O    0.921141543766   -3.608198315879    0.000000000000
 C    2.222468570122   -1.534474765395    0.000000000000
 H    3.117635626503   -2.166029926937    0.000000000000
 H    2.248150396453   -0.886321016705   -0.889405326190
 H    2.248150396453   -0.886321016705    0.889405326190
