18

 C   -2.206777232939    1.661551097450    0.000000000000
 H   -3.101937232939    2.293101097450    0.000000000000
 H   -2.232457232939    1.013391097450    0.889410000000
 H   -2.232457232939    1.013391097450   -0.889410000000
 C   -0.980627232939    2.540521097450    0.000000000000
 O   -0.905457232939    3.735281097450    0.000000000000
 O    0.213792767061    1.731191097450    0.000000000000
 H    0.951152767061    2.376611097450    0.000000000000
 K    0.001072767061    0.008651097450    2.025570000000
 K    0.001072767061    0.008651097450   -2.025570000000
 O   -0.215187281108   -1.742420296801    0.000000000000
 H   -0.952549451748   -2.387834763798    0.000000000000
 C    0.979237783874   -2.551753728795    0.000000000000
 O    0.904060378374   -3.746510880731    0.000000000000
 C    2.205387404730   -1.672787330247    0.000000000000
 H    3.100554461111   -2.304342491788    0.000000000000
 H    2.231069231061   -1.024633581557   -0.889405326190
 H    2.231069231061   -1.024633581557    0.889405326190
