18

 C   -2.199345252721    1.721730612270    0.000000000000
 H   -3.094505252721    2.353280612270    0.000000000000
 H   -2.225025252721    1.073570612270    0.889410000000
 H   -2.225025252721    1.073570612270   -0.889410000000
 C   -0.973195252721    2.600700612270    0.000000000000
 O   -0.898025252721    3.795460612270    0.000000000000
 O    0.221224747279    1.791370612270    0.000000000000
 H    0.958584747279    2.436790612270    0.000000000000
 K    0.008504747279    0.068830612270    2.025570000000
 K    0.008504747279    0.068830612270   -2.025570000000
 O   -0.232268446500   -1.880732861653    0.000000000000
 H   -0.969630617140   -2.526147328649    0.000000000000
 C    0.962156618482   -2.690066293647    0.000000000000
 O    0.886979212982   -3.884823445583    0.000000000000
 C    2.188306239338   -1.811099895099    0.000000000000
 H    3.083473295719   -2.442655056640    0.000000000000
 H    2.213988065669   -1.162946146409   -0.889405326190
 H    2.213988065669   -1.162946146409    0.889405326190
