18

 C   -2.195629262612    1.751820369680    0.000000000000
 H   -3.090789262612    2.383370369680    0.000000000000
 H   -2.221309262612    1.103660369680    0.889410000000
 H   -2.221309262612    1.103660369680   -0.889410000000
 C   -0.969479262612    2.630790369680    0.000000000000
 O   -0.894309262612    3.825550369680    0.000000000000
 O    0.224940737388    1.821460369680    0.000000000000
 H    0.962300737388    2.466880369680    0.000000000000
 K    0.012220737388    0.098920369680    2.025570000000
 K    0.012220737388    0.098920369680   -2.025570000000
 O   -0.240809029196   -1.949889144079    0.000000000000
 H   -0.978171199836   -2.595303611075    0.000000000000
 C    0.953616035786   -2.759222576072    0.000000000000
 O    0.878438630286   -3.953979728008    0.000000000000
 C    2.179765656642   -1.880256177524    0.000000000000
 H    3.074932713023   -2.511811339066    0.000000000000
 H    2.205447482973   -1.232102428834   -0.889405326190
 H    2.205447482973   -1.232102428834    0.889405326190
