18

 C   -2.177049312068    1.902269156730    0.000000000000
 H   -3.072209312068    2.533819156730    0.000000000000
 H   -2.202729312068    1.254109156730    0.889410000000
 H   -2.202729312068    1.254109156730   -0.889410000000
 C   -0.950899312068    2.781239156730    0.000000000000
 O   -0.875729312068    3.975999156730    0.000000000000
 O    0.243520687932    1.971909156730    0.000000000000
 H    0.980880687932    2.617329156730    0.000000000000
 K    0.030800687932    0.249369156730    2.025570000000
 K    0.030800687932    0.249369156730   -2.025570000000
 O   -0.283511942675   -2.295670556208    0.000000000000
 H   -1.020874113316   -2.941085023204    0.000000000000
 C    0.910913122307   -3.105003988201    0.000000000000
 O    0.835735716806   -4.299761140137    0.000000000000
 C    2.137062743162   -2.226037589653    0.000000000000
 H    3.032229799544   -2.857592751195    0.000000000000
 H    2.162744569493   -1.577883840963   -0.889405326190
 H    2.162744569493   -1.577883840963    0.889405326190
