18

 C   -2.173333321959    1.932358914140    0.000000000000
 H   -3.068493321959    2.563908914140    0.000000000000
 H   -2.199013321959    1.284198914140    0.889410000000
 H   -2.199013321959    1.284198914140   -0.889410000000
 C   -0.947183321959    2.811328914140    0.000000000000
 O   -0.872013321959    4.006088914140    0.000000000000
 O    0.247236678041    2.001998914140    0.000000000000
 H    0.984596678041    2.647418914140    0.000000000000
 K    0.034516678041    0.279458914140    2.025570000000
 K    0.034516678041    0.279458914140   -2.025570000000
 O   -0.292052525371   -2.364826838633    0.000000000000
 H   -1.029414696012   -3.010241305630    0.000000000000
 C    0.902372539611   -3.174160270627    0.000000000000
 O    0.827195134110   -4.368917422563    0.000000000000
 C    2.128522160466   -2.295193872079    0.000000000000
 H    3.023689216848   -2.926749033621    0.000000000000
 H    2.154203986797   -1.647040123389   -0.889405326190
 H    2.154203986797   -1.647040123389    0.889405326190
