18

 C   -2.169617331850    1.962448671550    0.000000000000
 H   -3.064777331850    2.593998671550    0.000000000000
 H   -2.195297331850    1.314288671550    0.889410000000
 H   -2.195297331850    1.314288671550   -0.889410000000
 C   -0.943467331850    2.841418671550    0.000000000000
 O   -0.868297331850    4.036178671550    0.000000000000
 O    0.250952668150    2.032088671550    0.000000000000
 H    0.988312668150    2.677508671550    0.000000000000
 K    0.038232668150    0.309548671550    2.025570000000
 K    0.038232668150    0.309548671550   -2.025570000000
 O   -0.300593108067   -2.433983121059    0.000000000000
 H   -1.037955278708   -3.079397588056    0.000000000000
 C    0.893831956915   -3.243316553053    0.000000000000
 O    0.818654551414   -4.438073704989    0.000000000000
 C    2.119981577770   -2.364350154505    0.000000000000
 H    3.015148634152   -2.995905316046    0.000000000000
 H    2.145663404101   -1.716196405815   -0.889405326190
 H    2.145663404101   -1.716196405815    0.889405326190
