18

 C   -2.158469361523    2.052717943780    0.000000000000
 H   -3.053629361523    2.684267943780    0.000000000000
 H   -2.184149361523    1.404557943780    0.889410000000
 H   -2.184149361523    1.404557943780   -0.889410000000
 C   -0.932319361523    2.931687943780    0.000000000000
 O   -0.857149361523    4.126447943780    0.000000000000
 O    0.262100638477    2.122357943780    0.000000000000
 H    0.999460638477    2.767777943780    0.000000000000
 K    0.049380638477    0.399817943780    2.025570000000
 K    0.049380638477    0.399817943780   -2.025570000000
 O   -0.326214856155   -2.641451968337    0.000000000000
 H   -1.063577026796   -3.286866435333    0.000000000000
 C    0.868210208827   -3.450785400330    0.000000000000
 O    0.793032803327   -4.645542552266    0.000000000000
 C    2.094359829682   -2.571819001782    0.000000000000
 H    2.989526886064   -3.203374163324    0.000000000000
 H    2.120041656014   -1.923665253092   -0.889405326190
 H    2.120041656014   -1.923665253092    0.889405326190
