18

 C   -2.151037381306    2.112897458599    0.000000000000
 H   -3.046197381306    2.744447458599    0.000000000000
 H   -2.176717381306    1.464737458599    0.889410000000
 H   -2.176717381306    1.464737458599   -0.889410000000
 C   -0.924887381306    2.991867458599    0.000000000000
 O   -0.849717381306    4.186627458599    0.000000000000
 O    0.269532618694    2.182537458599    0.000000000000
 H    1.006892618694    2.827957458599    0.000000000000
 K    0.056812618694    0.459997458599    2.025570000000
 K    0.056812618694    0.459997458599   -2.025570000000
 O   -0.343296021547   -2.779764533188    0.000000000000
 H   -1.080658192187   -3.425179000185    0.000000000000
 C    0.851129043435   -3.589097965182    0.000000000000
 O    0.775951637935   -4.783855117118    0.000000000000
 C    2.077278664290   -2.710131566634    0.000000000000
 H    2.972445720672   -3.341686728175    0.000000000000
 H    2.102960490622   -2.061977817944   -0.889405326190
 H    2.102960490622   -2.061977817944    0.889405326190
