18

 C   -2.147321391197    2.142987216009    0.000000000000
 H   -3.042481391197    2.774537216009    0.000000000000
 H   -2.173001391197    1.494827216009    0.889410000000
 H   -2.173001391197    1.494827216009   -0.889410000000
 C   -0.921171391197    3.021957216009    0.000000000000
 O   -0.846001391197    4.216717216009    0.000000000000
 O    0.273248608803    2.212627216009    0.000000000000
 H    1.010608608803    2.858047216009    0.000000000000
 K    0.060528608803    0.490087216009    2.025570000000
 K    0.060528608803    0.490087216009   -2.025570000000
 O   -0.351836604243   -2.848920815614    0.000000000000
 H   -1.089198774883   -3.494335282611    0.000000000000
 C    0.842588460739   -3.658254247608    0.000000000000
 O    0.767411055239   -4.853011399544    0.000000000000
 C    2.068738081594   -2.779287849060    0.000000000000
 H    2.963905137976   -3.410843010601    0.000000000000
 H    2.094419907926   -2.131134100370   -0.889405326190
 H    2.094419907926   -2.131134100370    0.889405326190
