18

 C   -2.139889410979    2.203166730829    0.000000000000
 H   -3.035049410979    2.834716730829    0.000000000000
 H   -2.165569410979    1.555006730829    0.889410000000
 H   -2.165569410979    1.555006730829   -0.889410000000
 C   -0.913739410979    3.082136730829    0.000000000000
 O   -0.838569410979    4.276896730829    0.000000000000
 O    0.280680589021    2.272806730829    0.000000000000
 H    1.018040589021    2.918226730829    0.000000000000
 K    0.067960589021    0.550266730829    2.025570000000
 K    0.067960589021    0.550266730829   -2.025570000000
 O   -0.368917769635   -2.987233380466    0.000000000000
 H   -1.106279940275   -3.632647847462    0.000000000000
 C    0.825507295347   -3.796566812459    0.000000000000
 O    0.750329889847   -4.991323964395    0.000000000000
 C    2.051656916203   -2.917600413911    0.000000000000
 H    2.946823972584   -3.549155575453    0.000000000000
 H    2.077338742534   -2.269446665221   -0.889405326190
 H    2.077338742534   -2.269446665221    0.889405326190
