18

 C   -2.136173420870    2.233256488239    0.000000000000
 H   -3.031333420870    2.864806488239    0.000000000000
 H   -2.161853420870    1.585096488239    0.889410000000
 H   -2.161853420870    1.585096488239   -0.889410000000
 C   -0.910023420870    3.112226488239    0.000000000000
 O   -0.834853420870    4.306986488239    0.000000000000
 O    0.284396579130    2.302896488239    0.000000000000
 H    1.021756579130    2.948316488239    0.000000000000
 K    0.071676579130    0.580356488239    2.025570000000
 K    0.071676579130    0.580356488239   -2.025570000000
 O   -0.377458352331   -3.056389662891    0.000000000000
 H   -1.114820522971   -3.701804129888    0.000000000000
 C    0.816966712651   -3.865723094885    0.000000000000
 O    0.741789307151   -5.060480246821    0.000000000000
 C    2.043116333507   -2.986756696337    0.000000000000
 H    2.938283389888   -3.618311857879    0.000000000000
 H    2.068798159838   -2.338602947647   -0.889405326190
 H    2.068798159838   -2.338602947647    0.889405326190
