18

 C   -2.117593470326    2.383705275289    0.000000000000
 H   -3.012753470326    3.015255275289    0.000000000000
 H   -2.143273470326    1.735545275289    0.889410000000
 H   -2.143273470326    1.735545275289   -0.889410000000
 C   -0.891443470326    3.262675275289    0.000000000000
 O   -0.816273470326    4.457435275289    0.000000000000
 O    0.302976529674    2.453345275289    0.000000000000
 H    1.040336529674    3.098765275289    0.000000000000
 K    0.090256529674    0.730805275289    2.025570000000
 K    0.090256529674    0.730805275289   -2.025570000000
 O   -0.420161265811   -3.402171075020    0.000000000000
 H   -1.157523436451   -4.047585542017    0.000000000000
 C    0.774263799171   -4.211504507014    0.000000000000
 O    0.699086393671   -5.406261658950    0.000000000000
 C    2.000413420027   -3.332538108466    0.000000000000
 H    2.895580476408   -3.964093270008    0.000000000000
 H    2.026095246358   -2.684384359776   -0.889405326190
 H    2.026095246358   -2.684384359776    0.889405326190
