18

 C   -2.091581539564    2.594333577159    0.000000000000
 H   -2.986741539564    3.225883577159    0.000000000000
 H   -2.117261539564    1.946173577159    0.889410000000
 H   -2.117261539564    1.946173577159   -0.889410000000
 C   -0.865431539564    3.473303577159    0.000000000000
 O   -0.790261539564    4.668063577159    0.000000000000
 O    0.328988460436    2.663973577159    0.000000000000
 H    1.066348460436    3.309393577159    0.000000000000
 K    0.116268460436    0.941433577159    2.025570000000
 K    0.116268460436    0.941433577159   -2.025570000000
 O   -0.479945344682   -3.886265052001    0.000000000000
 H   -1.217307515323   -4.531679518998    0.000000000000
 C    0.714479720300   -4.695598483995    0.000000000000
 O    0.639302314799   -5.890355635931    0.000000000000
 C    1.940629341155   -3.816632085447    0.000000000000
 H    2.835796397537   -4.448187246988    0.000000000000
 H    1.966311167486   -3.168478336757   -0.889405326190
 H    1.966311167486   -3.168478336757    0.889405326190
