18

 C   -2.065569608801    2.804961879028    0.000000000000
 H   -2.960729608801    3.436511879028    0.000000000000
 H   -2.091249608801    2.156801879028    0.889410000000
 H   -2.091249608801    2.156801879028   -0.889410000000
 C   -0.839419608801    3.683931879028    0.000000000000
 O   -0.764249608801    4.878691879028    0.000000000000
 O    0.355000391199    2.874601879028    0.000000000000
 H    1.092360391199    3.520021879028    0.000000000000
 K    0.142280391199    1.152061879028    2.025570000000
 K    0.142280391199    1.152061879028   -2.025570000000
 O   -0.539729423554   -4.370359028982    0.000000000000
 H   -1.277091594194   -5.015773495978    0.000000000000
 C    0.654695641428   -5.179692460975    0.000000000000
 O    0.579518235928   -6.374449612911    0.000000000000
 C    1.880845262283   -4.300726062427    0.000000000000
 H    2.776012318665   -4.932281223969    0.000000000000
 H    1.906527088615   -3.652572313737   -0.889405326190
 H    1.906527088615   -3.652572313737    0.889405326190
