18

 C   -2.061853618693    2.835051636438    0.000000000000
 H   -2.957013618693    3.466601636438    0.000000000000
 H   -2.087533618693    2.186891636438    0.889410000000
 H   -2.087533618693    2.186891636438   -0.889410000000
 C   -0.835703618693    3.714021636438    0.000000000000
 O   -0.760533618693    4.908781636438    0.000000000000
 O    0.358716381307    2.904691636438    0.000000000000
 H    1.096076381307    3.550111636438    0.000000000000
 K    0.145996381307    1.182151636438    2.025570000000
 K    0.145996381307    1.182151636438   -2.025570000000
 O   -0.548270006250   -4.439515311407    0.000000000000
 H   -1.285632176890   -5.084929778404    0.000000000000
 C    0.646155058732   -5.248848743401    0.000000000000
 O    0.570977653232   -6.443605895337    0.000000000000
 C    1.872304679588   -4.369882344853    0.000000000000
 H    2.767471735969   -5.001437506395    0.000000000000
 H    1.897986505919   -3.721728596163   -0.889405326190
 H    1.897986505919   -3.721728596163    0.889405326190
