18

 C   -2.046989658257    2.955410666078    0.000000000000
 H   -2.942149658257    3.586960666078    0.000000000000
 H   -2.072669658257    2.307250666078    0.889410000000
 H   -2.072669658257    2.307250666078   -0.889410000000
 C   -0.820839658257    3.834380666078    0.000000000000
 O   -0.745669658257    5.029140666078    0.000000000000
 O    0.373580341743    3.025050666078    0.000000000000
 H    1.110940341743    3.670470666078    0.000000000000
 K    0.160860341743    1.302510666078    2.025570000000
 K    0.160860341743    1.302510666078   -2.025570000000
 O   -0.582432337034   -4.716140441111    0.000000000000
 H   -1.319794507674   -5.361554908107    0.000000000000
 C    0.611992727948   -5.525473873104    0.000000000000
 O    0.536815322448   -6.720231025040    0.000000000000
 C    1.838142348804   -4.646507474556    0.000000000000
 H    2.733309405185   -5.278062636098    0.000000000000
 H    1.863824175135   -3.998353725866   -0.889405326190
 H    1.863824175135   -3.998353725866    0.889405326190
