18

 C   -2.039557678039    3.015590180898    0.000000000000
 H   -2.934717678039    3.647140180898    0.000000000000
 H   -2.065237678039    2.367430180898    0.889410000000
 H   -2.065237678039    2.367430180898   -0.889410000000
 C   -0.813407678039    3.894560180898    0.000000000000
 O   -0.738237678039    5.089320180898    0.000000000000
 O    0.381012321961    3.085230180898    0.000000000000
 H    1.118372321961    3.730650180898    0.000000000000
 K    0.168292321961    1.362690180898    2.025570000000
 K    0.168292321961    1.362690180898   -2.025570000000
 O   -0.599513502426   -4.854453005962    0.000000000000
 H   -1.336875673066   -5.499867472959    0.000000000000
 C    0.594911562556   -5.663786437956    0.000000000000
 O    0.519734157056   -6.858543589892    0.000000000000
 C    1.821061183412   -4.784820039408    0.000000000000
 H    2.716228239793   -5.416375200949    0.000000000000
 H    1.846743009743   -4.136666290718   -0.889405326190
 H    1.846743009743   -4.136666290718    0.889405326190
