18

 C   -2.032125697822    3.075769695718    0.000000000000
 H   -2.927285697822    3.707319695718    0.000000000000
 H   -2.057805697822    2.427609695718    0.889410000000
 H   -2.057805697822    2.427609695718   -0.889410000000
 C   -0.805975697822    3.954739695718    0.000000000000
 O   -0.730805697822    5.149499695718    0.000000000000
 O    0.388444302178    3.145409695718    0.000000000000
 H    1.125804302178    3.790829695718    0.000000000000
 K    0.175724302178    1.422869695718    2.025570000000
 K    0.175724302178    1.422869695718   -2.025570000000
 O   -0.616594667817   -4.992765570814    0.000000000000
 H   -1.353956838458   -5.638180037810    0.000000000000
 C    0.577830397165   -5.802099002808    0.000000000000
 O    0.502652991664   -6.996856154744    0.000000000000
 C    1.803980018020   -4.923132604260    0.000000000000
 H    2.699147074401   -5.554687765801    0.000000000000
 H    1.829661844351   -4.274978855570   -0.889405326190
 H    1.829661844351   -4.274978855570    0.889405326190
