18

 C   -2.028409707713    3.105859453128    0.000000000000
 H   -2.923569707713    3.737409453128    0.000000000000
 H   -2.054089707713    2.457699453128    0.889410000000
 H   -2.054089707713    2.457699453128   -0.889410000000
 C   -0.802259707713    3.984829453128    0.000000000000
 O   -0.727089707713    5.179589453128    0.000000000000
 O    0.392160292287    3.175499453128    0.000000000000
 H    1.129520292287    3.820919453128    0.000000000000
 K    0.179440292287    1.452959453128    2.025570000000
 K    0.179440292287    1.452959453128   -2.025570000000
 O   -0.625135250513   -5.061921853240    0.000000000000
 H   -1.362497421154   -5.707336320236    0.000000000000
 C    0.569289814469   -5.871255285233    0.000000000000
 O    0.494112408968   -7.066012437169    0.000000000000
 C    1.795439435324   -4.992288886685    0.000000000000
 H    2.690606491705   -5.623844048227    0.000000000000
 H    1.821121261655   -4.344135137995   -0.889405326190
 H    1.821121261655   -4.344135137995    0.889405326190
