18

 C   -2.024693717604    3.135949210538    0.000000000000
 H   -2.919853717604    3.767499210538    0.000000000000
 H   -2.050373717604    2.487789210538    0.889410000000
 H   -2.050373717604    2.487789210538   -0.889410000000
 C   -0.798543717604    4.014919210538    0.000000000000
 O   -0.723373717604    5.209679210538    0.000000000000
 O    0.395876282396    3.205589210538    0.000000000000
 H    1.133236282396    3.851009210538    0.000000000000
 K    0.183156282396    1.483049210538    2.025570000000
 K    0.183156282396    1.483049210538   -2.025570000000
 O   -0.633675833209   -5.131078135665    0.000000000000
 H   -1.371038003850   -5.776492602662    0.000000000000
 C    0.560749231773   -5.940411567659    0.000000000000
 O    0.485571826272   -7.135168719595    0.000000000000
 C    1.786898852628   -5.061445169111    0.000000000000
 H    2.682065909009   -5.693000330653    0.000000000000
 H    1.812580678959   -4.413291420421   -0.889405326190
 H    1.812580678959   -4.413291420421    0.889405326190
