18

 C   -2.013545747277    3.226218482768    0.000000000000
 H   -2.908705747277    3.857768482768    0.000000000000
 H   -2.039225747277    2.578058482768    0.889410000000
 H   -2.039225747277    2.578058482768   -0.889410000000
 C   -0.787395747277    4.105188482768    0.000000000000
 O   -0.712225747277    5.299948482768    0.000000000000
 O    0.407024252723    3.295858482768    0.000000000000
 H    1.144384252723    3.941278482768    0.000000000000
 K    0.194304252723    1.573318482768    2.025570000000
 K    0.194304252723    1.573318482768   -2.025570000000
 O   -0.659297581297   -5.338546982943    0.000000000000
 H   -1.396659751938   -5.983961449939    0.000000000000
 C    0.535127483685   -6.147880414937    0.000000000000
 O    0.459950078184   -7.342637566873    0.000000000000
 C    1.761277104540   -5.268914016389    0.000000000000
 H    2.656444160922   -5.900469177930    0.000000000000
 H    1.786958930871   -4.620760267699   -0.889405326190
 H    1.786958930871   -4.620760267699    0.889405326190
