18

 C   -2.006113767059    3.286397997588    0.000000000000
 H   -2.901273767059    3.917947997588    0.000000000000
 H   -2.031793767059    2.638237997588    0.889410000000
 H   -2.031793767059    2.638237997588   -0.889410000000
 C   -0.779963767059    4.165367997588    0.000000000000
 O   -0.704793767059    5.360127997588    0.000000000000
 O    0.414456232941    3.356037997588    0.000000000000
 H    1.151816232941    4.001457997588    0.000000000000
 K    0.201736232941    1.633497997588    2.025570000000
 K    0.201736232941    1.633497997588   -2.025570000000
 O   -0.676378746689   -5.476859547794    0.000000000000
 H   -1.413740917330   -6.122274014791    0.000000000000
 C    0.518046318293   -6.286192979788    0.000000000000
 O    0.442868912792   -7.480950131724    0.000000000000
 C    1.744195939148   -5.407226581240    0.000000000000
 H    2.639362995530   -6.038781742782    0.000000000000
 H    1.769877765479   -4.759072832550   -0.889405326190
 H    1.769877765479   -4.759072832550    0.889405326190
