18

 C   -1.998681786842    3.346577512407    0.000000000000
 H   -2.893841786842    3.978127512407    0.000000000000
 H   -2.024361786842    2.698417512407    0.889410000000
 H   -2.024361786842    2.698417512407   -0.889410000000
 C   -0.772531786842    4.225547512407    0.000000000000
 O   -0.697361786842    5.420307512407    0.000000000000
 O    0.421888213158    3.416217512407    0.000000000000
 H    1.159248213158    4.061637512407    0.000000000000
 K    0.209168213158    1.693677512407    2.025570000000
 K    0.209168213158    1.693677512407   -2.025570000000
 O   -0.693459912081   -5.615172112646    0.000000000000
 H   -1.430822082722   -6.260586579643    0.000000000000
 C    0.500965152901   -6.424505544640    0.000000000000
 O    0.425787747401   -7.619262696576    0.000000000000
 C    1.727114773756   -5.545539146092    0.000000000000
 H    2.622281830138   -6.177094307633    0.000000000000
 H    1.752796600088   -4.897385397402   -0.889405326190
 H    1.752796600088   -4.897385397402    0.889405326190
