13

 C    1.891934367006    1.044402397573    2.000439261224
 H    1.425314367006    2.036569397573    2.000439261224
 H    2.529083367006    0.939985397573    2.892945261224
 H    2.529083367006    0.939985397573    1.107933261224
 C    0.793759367006   -0.006682602427    2.000439261224
 O   -0.412403632994    0.271371397573    2.000439261224
 N    1.224688367006   -1.306831602427    2.000439261224
 H    2.216865367006   -1.500732602427    2.000439261224
 C    0.266353367006   -2.405359602427    2.000439261224
 H   -0.377711632994   -2.356880602427    2.891147261224
 H   -0.377711632994   -2.356880602427    1.109731261224
 H    0.819579367006   -3.353784602427    2.000439261224
CS   -0.412403632994    0.271371397573   -1.099560738776
