13

 C    1.891934367006    1.044402397573    2.839333144962
 H    1.425314367006    2.036569397573    2.839333144962
 H    2.529083367006    0.939985397573    3.731839144962
 H    2.529083367006    0.939985397573    1.946827144962
 C    0.793759367006   -0.006682602427    2.839333144962
 O   -0.412403632994    0.271371397573    2.839333144962
 N    1.224688367006   -1.306831602427    2.839333144962
 H    2.216865367006   -1.500732602427    2.839333144962
 C    0.266353367006   -2.405359602427    2.839333144962
 H   -0.377711632994   -2.356880602427    3.730041144962
 H   -0.377711632994   -2.356880602427    1.948625144962
 H    0.819579367006   -3.353784602427    2.839333144962
CS   -0.412403632994    0.271371397573   -1.560666855038
