13

 C    1.891934367006    1.044402397573    3.097454339959
 H    1.425314367006    2.036569397573    3.097454339959
 H    2.529083367006    0.939985397573    3.989960339959
 H    2.529083367006    0.939985397573    2.204948339959
 C    0.793759367006   -0.006682602427    3.097454339959
 O   -0.412403632994    0.271371397573    3.097454339959
 N    1.224688367006   -1.306831602427    3.097454339959
 H    2.216865367006   -1.500732602427    3.097454339959
 C    0.266353367006   -2.405359602427    3.097454339959
 H   -0.377711632994   -2.356880602427    3.988162339959
 H   -0.377711632994   -2.356880602427    2.206746339959
 H    0.819579367006   -3.353784602427    3.097454339959
CS   -0.412403632994    0.271371397573   -1.702545660041
