13

 C    1.891934367006    1.044402397573    3.291045236207
 H    1.425314367006    2.036569397573    3.291045236207
 H    2.529083367006    0.939985397573    4.183551236207
 H    2.529083367006    0.939985397573    2.398539236207
 C    0.793759367006   -0.006682602427    3.291045236207
 O   -0.412403632994    0.271371397573    3.291045236207
 N    1.224688367006   -1.306831602427    3.291045236207
 H    2.216865367006   -1.500732602427    3.291045236207
 C    0.266353367006   -2.405359602427    3.291045236207
 H   -0.377711632994   -2.356880602427    4.181753236207
 H   -0.377711632994   -2.356880602427    2.400337236207
 H    0.819579367006   -3.353784602427    3.291045236207
CS   -0.412403632994    0.271371397573   -1.808954763793
