13

 C    1.891934367006    1.044402397573    4.065408821196
 H    1.425314367006    2.036569397573    4.065408821196
 H    2.529083367006    0.939985397573    4.957914821196
 H    2.529083367006    0.939985397573    3.172902821196
 C    0.793759367006   -0.006682602427    4.065408821196
 O   -0.412403632994    0.271371397573    4.065408821196
 N    1.224688367006   -1.306831602427    4.065408821196
 H    2.216865367006   -1.500732602427    4.065408821196
 C    0.266353367006   -2.405359602427    4.065408821196
 H   -0.377711632994   -2.356880602427    4.956116821196
 H   -0.377711632994   -2.356880602427    3.174700821196
 H    0.819579367006   -3.353784602427    4.065408821196
CS   -0.412403632994    0.271371397573   -2.234591178804
