13

 C    1.891934367006    1.044402397573    4.517120912440
 H    1.425314367006    2.036569397573    4.517120912440
 H    2.529083367006    0.939985397573    5.409626912440
 H    2.529083367006    0.939985397573    3.624614912440
 C    0.793759367006   -0.006682602427    4.517120912440
 O   -0.412403632994    0.271371397573    4.517120912440
 N    1.224688367006   -1.306831602427    4.517120912440
 H    2.216865367006   -1.500732602427    4.517120912440
 C    0.266353367006   -2.405359602427    4.517120912440
 H   -0.377711632994   -2.356880602427    5.407828912440
 H   -0.377711632994   -2.356880602427    3.626412912440
 H    0.819579367006   -3.353784602427    4.517120912440
CS   -0.412403632994    0.271371397573   -2.482879087560
