13

 C    1.891934367006    1.044402397573    5.097893601183
 H    1.425314367006    2.036569397573    5.097893601183
 H    2.529083367006    0.939985397573    5.990399601183
 H    2.529083367006    0.939985397573    4.205387601183
 C    0.793759367006   -0.006682602427    5.097893601183
 O   -0.412403632994    0.271371397573    5.097893601183
 N    1.224688367006   -1.306831602427    5.097893601183
 H    2.216865367006   -1.500732602427    5.097893601183
 C    0.266353367006   -2.405359602427    5.097893601183
 H   -0.377711632994   -2.356880602427    5.988601601183
 H   -0.377711632994   -2.356880602427    4.207185601183
 H    0.819579367006   -3.353784602427    5.097893601183
CS   -0.412403632994    0.271371397573   -2.802106398817
