13

 C    1.891934367006    1.044402397573    5.291484497430
 H    1.425314367006    2.036569397573    5.291484497430
 H    2.529083367006    0.939985397573    6.183990497430
 H    2.529083367006    0.939985397573    4.398978497430
 C    0.793759367006   -0.006682602427    5.291484497430
 O   -0.412403632994    0.271371397573    5.291484497430
 N    1.224688367006   -1.306831602427    5.291484497430
 H    2.216865367006   -1.500732602427    5.291484497430
 C    0.266353367006   -2.405359602427    5.291484497430
 H   -0.377711632994   -2.356880602427    6.182192497430
 H   -0.377711632994   -2.356880602427    4.400776497430
 H    0.819579367006   -3.353784602427    5.291484497430
CS   -0.412403632994    0.271371397573   -2.908515502570
