13

 C    1.891934367006    1.044402397573    6.259438978667
 H    1.425314367006    2.036569397573    6.259438978667
 H    2.529083367006    0.939985397573    7.151944978667
 H    2.529083367006    0.939985397573    5.366932978667
 C    0.793759367006   -0.006682602427    6.259438978667
 O   -0.412403632994    0.271371397573    6.259438978667
 N    1.224688367006   -1.306831602427    6.259438978667
 H    2.216865367006   -1.500732602427    6.259438978667
 C    0.266353367006   -2.405359602427    6.259438978667
 H   -0.377711632994   -2.356880602427    7.150146978667
 H   -0.377711632994   -2.356880602427    5.368730978667
 H    0.819579367006   -3.353784602427    6.259438978667
CS   -0.412403632994    0.271371397573   -3.440561021333
