17

 N   -1.424578669673   -1.632994158468    0.140499180994
 C   -0.214390602829   -0.977787954792    0.144460804962
 N    1.019021811474   -1.576465649254    0.156499089867
 C    1.989445011530   -0.686289507643    0.144626632894
 N    1.786368174117    0.675348625871    0.137791472552
 H    2.590195299368    1.295309165626    0.055803450130
 N    3.314899765767   -1.104964229323    0.066279329659
 H    3.969435971099   -0.573161004923    0.633920106389
 H    3.393704853158   -2.105664373258    0.227862667648
 C    0.527094431800    1.361382329402    0.150745259229
 O    0.499514062695    2.589555414179    0.146657130801
 C   -0.545690694176    0.387688940128    0.156946457169
 N   -1.916763995945    0.574019985441    0.156871272453
 C   -2.410287490456   -0.664583028604    0.146541172788
 H   -3.467785403724   -0.918729650436    0.143594528362
 H   -1.549675666204   -2.639577243700    0.131839629963
NA   -1.915288154719    0.584435786493   -0.943078423206
