17

 N   -1.424596392563   -1.633119238383    0.153708113634
 C   -0.214408325719   -0.977913034707    0.157669737602
 N    1.019004088584   -1.576590729169    0.169708022507
 C    1.989427288640   -0.686414587558    0.157835565534
 N    1.786350451227    0.675223545956    0.151000405192
 H    2.590177576478    1.295184085711    0.069012382770
 N    3.314882042877   -1.105089309238    0.079488262299
 H    3.969418248209   -0.573286084838    0.647129039029
 H    3.393687130268   -2.105789453173    0.241071600288
 C    0.527076708910    1.361257249487    0.163954191869
 O    0.499496339805    2.589430334264    0.159866063441
 C   -0.545708417066    0.387563860213    0.170155389809
 N   -1.916781718835    0.573894905526    0.170080205093
 C   -2.410305213346   -0.664708108519    0.159750105428
 H   -3.467803126614   -0.918854730351    0.156803461002
 H   -1.549693389094   -2.639702323615    0.145048562603
NA   -1.915171710225    0.585257597583   -1.029864917445
