17

 N   -1.424631838343   -1.633369398213    0.180125978913
 C   -0.214443771499   -0.978163194537    0.184087602881
 N    1.018968642804   -1.576840888999    0.196125887786
 C    1.989391842860   -0.686664747388    0.184253430813
 N    1.786315005447    0.674973386126    0.177418270471
 H    2.590142130698    1.294933925881    0.095430248049
 N    3.314846597097   -1.105339469068    0.105906127578
 H    3.969382802429   -0.573536244668    0.673546904308
 H    3.393651684488   -2.106039613003    0.267489465567
 C    0.527041263130    1.361007089657    0.190372057148
 O    0.499460894025    2.589180174434    0.186283928720
 C   -0.545743862846    0.387313700383    0.196573255088
 N   -1.916817164615    0.573644745696    0.196498070372
 C   -2.410340659126   -0.664958268349    0.186167970707
 H   -3.467838572394   -0.919104890181    0.183221326281
 H   -1.549728834874   -2.639952483445    0.171466427882
NA   -1.914938821236    0.586901219762   -1.203437905922
