17

 N   -1.424649561233   -1.633494478128    0.193334911552
 C   -0.214461494389   -0.978288274452    0.197296535520
 N    1.018950919914   -1.576965968914    0.209334820425
 C    1.989374119970   -0.686789827303    0.197462363452
 N    1.786297282557    0.674848306211    0.190627203110
 H    2.590124407808    1.294808845966    0.108639180688
 N    3.314828874207   -1.105464548983    0.119115060217
 H    3.969365079539   -0.573661324583    0.686755836947
 H    3.393633961598   -2.106164692918    0.280698398206
 C    0.527023540240    1.360882009742    0.203580989787
 O    0.499443171135    2.589055094519    0.199492861359
 C   -0.545761585736    0.387188620468    0.209782187727
 N   -1.916834887505    0.573519665781    0.209707003011
 C   -2.410358382016   -0.665083348264    0.199376903346
 H   -3.467856295284   -0.919229970096    0.196430258920
 H   -1.549746557764   -2.640077563360    0.184675360521
NA   -1.914822376742    0.587723030852   -1.290224400160
