17

 N   -1.424667284123   -1.633619558043    0.206543844192
 C   -0.214479217279   -0.978413354367    0.210505468160
 N    1.018933197024   -1.577091048829    0.222543753065
 C    1.989356397080   -0.686914907218    0.210671296092
 N    1.786279559667    0.674723226296    0.203836135750
 H    2.590106684918    1.294683766051    0.121848113328
 N    3.314811151317   -1.105589628898    0.132323992857
 H    3.969347356649   -0.573786404498    0.699964769587
 H    3.393616238708   -2.106289772833    0.293907330846
 C    0.527005817350    1.360756929827    0.216789922427
 O    0.499425448245    2.588930014604    0.212701793999
 C   -0.545779308626    0.387063540553    0.222991120367
 N   -1.916852610395    0.573394585866    0.222915935651
 C   -2.410376104906   -0.665208428179    0.212585835986
 H   -3.467874018174   -0.919355050011    0.209639191560
 H   -1.549764280654   -2.640202643275    0.197884293161
NA   -1.914705932247    0.588544841941   -1.377010894399
