17

 N   -1.424738175682   -1.634119877703    0.259379574750
 C   -0.214550108838   -0.978913674027    0.263341198718
 N    1.018862305465   -1.577591368489    0.275379483623
 C    1.989285505521   -0.687415226878    0.263507026650
 N    1.786208668108    0.674222906636    0.256671866308
 H    2.590035793359    1.294183446391    0.174683843886
 N    3.314740259758   -1.106089948558    0.185159723415
 H    3.969276465090   -0.574286724158    0.752800500145
 H    3.393545347149   -2.106790092493    0.346743061404
 C    0.526934925791    1.360256610167    0.269625652985
 O    0.499354556686    2.588429694944    0.265537524557
 C   -0.545850200185    0.386563220893    0.275826850925
 N   -1.916923501954    0.572894266206    0.275751666209
 C   -2.410446996465   -0.665708747839    0.265421566544
 H   -3.467944909733   -0.919855369671    0.262474922118
 H   -1.549835172213   -2.640702962935    0.250720023719
NA   -1.914240154270    0.591832086300   -1.724156871353
