17

 N   -1.424773621462   -1.634370037533    0.285797440030
 C   -0.214585554618   -0.979163833857    0.289759063998
 N    1.018826859685   -1.577841528319    0.301797348903
 C    1.989250059741   -0.687665386708    0.289924891930
 N    1.786173222328    0.673972746806    0.283089731588
 H    2.590000347579    1.293933286561    0.201101709166
 N    3.314704813978   -1.106340108388    0.211577588695
 H    3.969241019310   -0.574536883988    0.779218365425
 H    3.393509901369   -2.107040252323    0.373160926684
 C    0.526899480011    1.360006450337    0.296043518265
 O    0.499319110906    2.588179535114    0.291955389837
 C   -0.545885645965    0.386313061063    0.302244716205
 N   -1.916958947734    0.572644106376    0.302169531489
 C   -2.410482442245   -0.665958907669    0.291839431824
 H   -3.467980355513   -0.920105529501    0.288892787398
 H   -1.549870617993   -2.640953122765    0.277137888999
NA   -1.914007265281    0.593475708479   -1.897729859830
