17

 N   -1.424915404581   -1.635370676853    0.391468901146
 C   -0.214727337737   -0.980164473177    0.395430525114
 N    1.018685076566   -1.578842167639    0.407468810019
 C    1.989108276622   -0.688666026028    0.395596353046
 N    1.786031439209    0.672972107486    0.388761192704
 H    2.589858564460    1.292932647241    0.306773170282
 N    3.314563030859   -1.107340747708    0.317249049811
 H    3.969099236191   -0.575537523308    0.884889826541
 H    3.393368118250   -2.108040891643    0.478832387800
 C    0.526757696892    1.359005811017    0.401714979381
 O    0.499177327787    2.587178895794    0.397626850953
 C   -0.546027429084    0.385312421743    0.407916177321
 N   -1.917100730853    0.571643467056    0.407840992605
 C   -2.410624225364   -0.666959546989    0.397510892940
 H   -3.468122138632   -0.921106168821    0.394564248514
 H   -1.550012401112   -2.641953762085    0.382809350115
NA   -1.913075709327    0.600050197197   -2.592021813738
