17

 N   -1.425004019031   -1.635996076429    0.457513564344
 C   -0.214815952187   -0.980789872753    0.461475188312
 N    1.018596462116   -1.579467567215    0.473513473217
 C    1.989019662172   -0.689291425604    0.461641016244
 N    1.785942824759    0.672346707910    0.454805855902
 H    2.589769950010    1.292307247665    0.372817833480
 N    3.314474416409   -1.107966147284    0.383293713009
 H    3.969010621741   -0.576162922884    0.950934489739
 H    3.393279503800   -2.108666291219    0.544877050998
 C    0.526669082442    1.358380411441    0.467759642579
 O    0.499088713337    2.586553496218    0.463671514151
 C   -0.546116043534    0.384687022167    0.473960840519
 N   -1.917189345303    0.571018067480    0.473885655803
 C   -2.410712839814   -0.667584946565    0.463555556138
 H   -3.468210753082   -0.921731568397    0.460608911712
 H   -1.550101015562   -2.642579161661    0.448854013313
NA   -1.912493486855    0.604159252645   -3.025954284931
