17

 N   -1.425021741921   -1.636121156344    0.470722496984
 C   -0.214833675077   -0.980914952668    0.474684120952
 N    1.018578739226   -1.579592647130    0.486722405857
 C    1.989001939282   -0.689416505519    0.474849948884
 N    1.785925101869    0.672221627995    0.468014788542
 H    2.589752227120    1.292182167750    0.386026766120
 N    3.314456693519   -1.108091227199    0.396502645649
 H    3.968992898851   -0.576288002799    0.964143422379
 H    3.393261780910   -2.108791371134    0.558085983638
 C    0.526651359552    1.358255331526    0.480968575219
 O    0.499070990447    2.586428416303    0.476880446791
 C   -0.546133766424    0.384561942252    0.487169773159
 N   -1.917207068193    0.570892987565    0.487094588443
 C   -2.410730562704   -0.667710026480    0.476764488778
 H   -3.468228475972   -0.921856648312    0.473817844352
 H   -1.550118738452   -2.642704241576    0.462062945953
NA   -1.912377042361    0.604981063735   -3.112740779169
