17

 N   -1.425181247930   -1.637246875579    0.589602890740
 C   -0.214993181086   -0.982040671903    0.593564514708
 N    1.018419233217   -1.580718366365    0.605602799613
 C    1.988842433273   -0.690542224754    0.593730342640
 N    1.785765595860    0.671095908760    0.586895182298
 H    2.589592721111    1.291056448515    0.504907159876
 N    3.314297187510   -1.109216946434    0.515383039405
 H    3.968833392842   -0.577413722034    1.083023816135
 H    3.393102274901   -2.109917090369    0.676966377394
 C    0.526491853543    1.357129612291    0.599848968975
 O    0.498911484438    2.585302697068    0.595760840547
 C   -0.546293272433    0.383436223017    0.606050166915
 N   -1.917366574202    0.569767268330    0.605974982199
 C   -2.410890068713   -0.668835745715    0.595644882534
 H   -3.468387981981   -0.922982367547    0.592698238108
 H   -1.550278244461   -2.643829960811    0.580943339709
NA   -1.911329041912    0.612377363542   -3.893819227316
