17

 N   -1.425198970820   -1.637371955494    0.602811823380
 C   -0.215010903976   -0.982165751818    0.606773447348
 N    1.018401510327   -1.580843446280    0.618811732253
 C    1.988824710383   -0.690667304669    0.606939275280
 N    1.785747872970    0.670970828845    0.600104114938
 H    2.589574998221    1.290931368600    0.518116092516
 N    3.314279464620   -1.109342026349    0.528591972045
 H    3.968815669952   -0.577538801949    1.096232748775
 H    3.393084552011   -2.110042170284    0.690175310034
 C    0.526474130653    1.357004532376    0.613057901615
 O    0.498893761548    2.585177617153    0.608969773187
 C   -0.546310995323    0.383311143102    0.619259099555
 N   -1.917384297092    0.569642188415    0.619183914839
 C   -2.410907791603   -0.668960825630    0.608853815174
 H   -3.468405704871   -0.923107447462    0.605907170748
 H   -1.550295967351   -2.643955040726    0.594152272349
NA   -1.911212597417    0.613199174632   -3.980605721555
