17

 N   -1.425216693710   -1.637497035409    0.616020756020
 C   -0.215028626866   -0.982290831733    0.619982379988
 N    1.018383787437   -1.580968526195    0.632020664893
 C    1.988806987493   -0.690792384584    0.620148207920
 N    1.785730150080    0.670845748930    0.613313047578
 H    2.589557275331    1.290806288685    0.531325025156
 N    3.314261741730   -1.109467106264    0.541800904685
 H    3.968797947062   -0.577663881864    1.109441681415
 H    3.393066829121   -2.110167250199    0.703384242674
 C    0.526456407763    1.356879452461    0.626266834255
 O    0.498876038658    2.585052537238    0.622178705827
 C   -0.546328718213    0.383186063187    0.632468032195
 N   -1.917402019982    0.569517108500    0.632392847479
 C   -2.410925514493   -0.669085905545    0.622062747814
 H   -3.468423427761   -0.923232527377    0.619116103388
 H   -1.550313690241   -2.644080120641    0.607361204989
NA   -1.911096152923    0.614020985721   -4.067392215793
