17

 N   -1.425287585269   -1.637997355069    0.668856486578
 C   -0.215099518425   -0.982791151393    0.672818110546
 N    1.018312895878   -1.581468845855    0.684856395451
 C    1.988736095934   -0.691292704244    0.672983938478
 N    1.785659258521    0.670345429270    0.666148778136
 H    2.589486383772    1.290305969025    0.584160755714
 N    3.314190850171   -1.109967425924    0.594636635243
 H    3.968727055503   -0.578164201524    1.162277411973
 H    3.392995937562   -2.110667569859    0.756219973232
 C    0.526385516204    1.356379132801    0.679102564813
 O    0.498805147099    2.584552217578    0.675014436385
 C   -0.546399609772    0.382685743527    0.685303762753
 N   -1.917472911541    0.569016788840    0.685228578037
 C   -2.410996406052   -0.669586225205    0.674898478372
 H   -3.468494319320   -0.923732847037    0.671951833946
 H   -1.550384581800   -2.644580440301    0.660196935547
NA   -1.910630374946    0.617308230080   -4.414538192747
