17

 N   -1.425323031049   -1.638247514899    0.695274351857
 C   -0.215134964205   -0.983041311223    0.699235975825
 N    1.018277450098   -1.581719005685    0.711274260730
 C    1.988700650154   -0.691542864074    0.699401803757
 N    1.785623812741    0.670095269440    0.692566643415
 H    2.589450937992    1.290055809195    0.610578620993
 N    3.314155404391   -1.110217585754    0.621054500522
 H    3.968691609723   -0.578414361354    1.188695277252
 H    3.392960491782   -2.110917729689    0.782637838511
 C    0.526350070424    1.356128972971    0.705520430092
 O    0.498769701319    2.584302057748    0.701432301664
 C   -0.546435055552    0.382435583697    0.711721628032
 N   -1.917508357321    0.568766629010    0.711646443316
 C   -2.411031851832   -0.669836385035    0.701316343651
 H   -3.468529765100   -0.923983006867    0.698369699225
 H   -1.550420027580   -2.644830600131    0.686614800826
NA   -1.910397485957    0.618951852259   -4.588111181224
