17

 N   -1.425411645498   -1.638872914475    0.761319015055
 C   -0.215223578654   -0.983666710799    0.765280639023
 N    1.018188835649   -1.582344405261    0.777318923928
 C    1.988612035705   -0.692168263650    0.765446466955
 N    1.785535198292    0.669469869864    0.758611306613
 H    2.589362323543    1.289430409619    0.676623284191
 N    3.314066789942   -1.110842985330    0.687099163720
 H    3.968602995274   -0.579039760930    1.254739940450
 H    3.392871877333   -2.111543129265    0.848682501709
 C    0.526261455975    1.355503573395    0.771565093290
 O    0.498681086870    2.583676658172    0.767476964862
 C   -0.546523670001    0.381810184121    0.777766291230
 N   -1.917596971770    0.568141229434    0.777691106514
 C   -2.411120466281   -0.670461784611    0.767361006849
 H   -3.468618379549   -0.924608406443    0.764414362423
 H   -1.550508642029   -2.645455999707    0.752659464024
NA   -1.909815263486    0.623060907708   -5.022043652417
