17

 N   -1.425429368388   -1.638997994390    0.774527947695
 C   -0.215241301544   -0.983791790714    0.778489571663
 N    1.018171112759   -1.582469485176    0.790527856568
 C    1.988594312815   -0.692293343565    0.778655399595
 N    1.785517475402    0.669344789949    0.771820239253
 H    2.589344600653    1.289305329704    0.689832216831
 N    3.314049067052   -1.110968065245    0.700308096360
 H    3.968585272384   -0.579164840845    1.267948873090
 H    3.392854154443   -2.111668209180    0.861891434349
 C    0.526243733085    1.355378493480    0.784774025930
 O    0.498663363980    2.583551578257    0.780685897502
 C   -0.546541392891    0.381685104206    0.790975223870
 N   -1.917614694660    0.568016149519    0.790900039154
 C   -2.411138189171   -0.670586864526    0.780569939489
 H   -3.468636102439   -0.924733486358    0.777623295063
 H   -1.550526364919   -2.645581079622    0.765868396664
NA   -1.909698818991    0.623882718797   -5.108830146656
