17

 N   -1.425447091278   -1.639123074305    0.787736880334
 C   -0.215259024434   -0.983916870629    0.791698504302
 N    1.018153389869   -1.582594565091    0.803736789207
 C    1.988576589925   -0.692418423480    0.791864332234
 N    1.785499752512    0.669219710034    0.785029171892
 H    2.589326877763    1.289180249789    0.703041149470
 N    3.314031344162   -1.111093145160    0.713517028999
 H    3.968567549494   -0.579289920760    1.281157805729
 H    3.392836431553   -2.111793289095    0.875100366988
 C    0.526226010195    1.355253413565    0.797982958569
 O    0.498645641090    2.583426498342    0.793894830141
 C   -0.546559115781    0.381560024291    0.804184156509
 N   -1.917632417550    0.567891069604    0.804108971793
 C   -2.411155912061   -0.670711944441    0.793778872128
 H   -3.468653825329   -0.924858566273    0.790832227702
 H   -1.550544087809   -2.645706159537    0.779077329303
NA   -1.909582374497    0.624704529887   -5.195616640894
