17

 N   -1.425464814168   -1.639248154220    0.800945812974
 C   -0.215276747324   -0.984041950544    0.804907436942
 N    1.018135666979   -1.582719645006    0.816945721847
 C    1.988558867035   -0.692543503395    0.805073264874
 N    1.785482029622    0.669094630119    0.798238104532
 H    2.589309154873    1.289055169874    0.716250082110
 N    3.314013621272   -1.111218225075    0.726725961639
 H    3.968549826604   -0.579415000675    1.294366738369
 H    3.392818708663   -2.111918369010    0.888309299628
 C    0.526208287305    1.355128333650    0.811191891209
 O    0.498627918200    2.583301418427    0.807103762781
 C   -0.546576838671    0.381434944376    0.817393089149
 N   -1.917650140440    0.567765989689    0.817317904433
 C   -2.411173634951   -0.670837024356    0.806987804768
 H   -3.468671548219   -0.924983646188    0.804041160342
 H   -1.550561810699   -2.645831239452    0.792286261943
NA   -1.909465930003    0.625526340977   -5.282403135133
