17

 N   -1.425517982838   -1.639623393965    0.840572610893
 C   -0.215329915994   -0.984417190289    0.844534234861
 N    1.018082498309   -1.583094884751    0.856572519766
 C    1.988505698365   -0.692918743140    0.844700062793
 N    1.785428860952    0.668719390374    0.837864902451
 H    2.589255986203    1.288679930129    0.755876880029
 N    3.313960452602   -1.111593464820    0.766352759558
 H    3.968496657934   -0.579790240420    1.333993536288
 H    3.392765539993   -2.112293608755    0.927936097547
 C    0.526155118635    1.354753093905    0.850818689128
 O    0.498574749530    2.582926178682    0.846730560700
 C   -0.546630007341    0.381059704631    0.857019887068
 N   -1.917703309110    0.567390749944    0.856944702352
 C   -2.411226803621   -0.671212264101    0.846614602687
 H   -3.468724716889   -0.925358885933    0.843667958261
 H   -1.550614979369   -2.646206479197    0.831913059862
NA   -1.909116596520    0.627991774246   -5.542762617848
