17

 N   -1.425535705728   -1.639748473880    0.853781543532
 C   -0.215347638884   -0.984542270204    0.857743167500
 N    1.018064775419   -1.583219964666    0.869781452405
 C    1.988487975475   -0.693043823055    0.857908995432
 N    1.785411138062    0.668594310459    0.851073835090
 H    2.589238263313    1.288554850214    0.769085812668
 N    3.313942729712   -1.111718544735    0.779561692197
 H    3.968478935044   -0.579915320335    1.347202468927
 H    3.392747817103   -2.112418688670    0.941145030186
 C    0.526137395745    1.354628013990    0.864027621767
 O    0.498557026640    2.582801098767    0.859939493339
 C   -0.546647730231    0.380934624716    0.870228819707
 N   -1.917721032000    0.567265670029    0.870153634991
 C   -2.411244526511   -0.671337344016    0.859823535326
 H   -3.468742439779   -0.925483965848    0.856876890900
 H   -1.550632702259   -2.646331559112    0.845121992501
NA   -1.909000152025    0.628813585335   -5.629549112087
