17

 N   -1.425553428618   -1.639873553795    0.866990476172
 C   -0.215365361774   -0.984667350119    0.870952100140
 N    1.018047052529   -1.583345044581    0.882990385045
 C    1.988470252585   -0.693168902970    0.871117928072
 N    1.785393415172    0.668469230544    0.864282767730
 H    2.589220540423    1.288429770299    0.782294745308
 N    3.313925006822   -1.111843624650    0.792770624837
 H    3.968461212154   -0.580040400250    1.360411401567
 H    3.392730094213   -2.112543768585    0.954353962826
 C    0.526119672855    1.354502934075    0.877236554407
 O    0.498539303750    2.582676018852    0.873148425979
 C   -0.546665453121    0.380809544801    0.883437752347
 N   -1.917738754890    0.567140590114    0.883362567631
 C   -2.411262249401   -0.671462423931    0.873032467966
 H   -3.468760162669   -0.925609045763    0.870085823540
 H   -1.550650425149   -2.646456639027    0.858330925141
NA   -1.908883707531    0.629635396425   -5.716335606325
