17

 N   -1.425571151508   -1.639998633710    0.880199408812
 C   -0.215383084664   -0.984792430034    0.884161032780
 N    1.018029329639   -1.583470124496    0.896199317685
 C    1.988452529695   -0.693293982885    0.884326860712
 N    1.785375692282    0.668344150629    0.877491700370
 H    2.589202817533    1.288304690384    0.795503677948
 N    3.313907283932   -1.111968704565    0.805979557477
 H    3.968443489264   -0.580165480165    1.373620334207
 H    3.392712371323   -2.112668848500    0.967562895466
 C    0.526101949965    1.354377854160    0.890445487047
 O    0.498521580860    2.582550938937    0.886357358619
 C   -0.546683176011    0.380684464886    0.896646684987
 N   -1.917756477780    0.567015510199    0.896571500271
 C   -2.411279972291   -0.671587503846    0.886241400606
 H   -3.468777885559   -0.925734125678    0.883294756180
 H   -1.550668148039   -2.646581718942    0.871539857781
NA   -1.908767263037    0.630457207515   -5.803122100564
