17

 N   -1.425606597287   -1.640248793540    0.906617274091
 C   -0.215418530443   -0.985042589864    0.910578898059
 N    1.017993883860   -1.583720284326    0.922617182964
 C    1.988417083916   -0.693544142715    0.910744725991
 N    1.785340246503    0.668093990799    0.903909565649
 H    2.589167371754    1.288054530554    0.821921543227
 N    3.313871838153   -1.112218864395    0.832397422756
 H    3.968408043485   -0.580415639995    1.400038199486
 H    3.392676925544   -2.112919008330    0.993980760745
 C    0.526066504186    1.354127694330    0.916863352326
 O    0.498486135081    2.582300779107    0.912775223898
 C   -0.546718621790    0.380434305056    0.923064550266
 N   -1.917791923559    0.566765350369    0.922989365550
 C   -2.411315418070   -0.671837663676    0.912659265885
 H   -3.468813331338   -0.925984285508    0.909712621459
 H   -1.550703593818   -2.646831878772    0.897957723060
NA   -1.908534374048    0.632100829694   -5.976695089041
