17

 N   -1.425624320177   -1.640373873455    0.919826206730
 C   -0.215436253333   -0.985167669779    0.923787830698
 N    1.017976160970   -1.583845364241    0.935826115603
 C    1.988399361026   -0.693669222630    0.923953658630
 N    1.785322523613    0.667968910884    0.917118498288
 H    2.589149648864    1.287929450639    0.835130475866
 N    3.313854115263   -1.112343944310    0.845606355395
 H    3.968390320595   -0.580540719910    1.413247132125
 H    3.392659202654   -2.113044088245    1.007189693384
 C    0.526048781296    1.354002614415    0.930072284965
 O    0.498468412191    2.582175699192    0.925984156537
 C   -0.546736344680    0.380309225141    0.936273482905
 N   -1.917809646449    0.566640270454    0.936198298189
 C   -2.411333140960   -0.671962743591    0.925868198524
 H   -3.468831054228   -0.926109365423    0.922921554098
 H   -1.550721316708   -2.646956958687    0.911166655699
NA   -1.908417929554    0.632922640784   -6.063481583279
