17

 N   -1.425659765957   -1.640624033285    0.946244072010
 C   -0.215471699113   -0.985417829609    0.950205695978
 N    1.017940715190   -1.584095524071    0.962243980883
 C    1.988363915246   -0.693919382460    0.950371523910
 N    1.785287077833    0.667718751054    0.943536363568
 H    2.589114203084    1.287679290809    0.861548341146
 N    3.313818669483   -1.112594104140    0.872024220675
 H    3.968354874815   -0.580790879740    1.439664997405
 H    3.392623756874   -2.113294248075    1.033607558664
 C    0.526013335516    1.353752454585    0.956490150245
 O    0.498432966411    2.581925539362    0.952402021817
 C   -0.546771790460    0.380059065311    0.962691348185
 N   -1.917845092229    0.566390110624    0.962616163469
 C   -2.411368586740   -0.672212903421    0.952286063804
 H   -3.468866500008   -0.926359525253    0.949339419378
 H   -1.550756762488   -2.647207118517    0.937584520979
NA   -1.908185040565    0.634566262963   -6.237054571756
