17

 N   -1.425695211737   -1.640874193115    0.972661937289
 C   -0.215507144893   -0.985667989439    0.976623561257
 N    1.017905269410   -1.584345683901    0.988661846162
 C    1.988328469466   -0.694169542290    0.976789389189
 N    1.785251632053    0.667468591224    0.969954228847
 H    2.589078757304    1.287429130979    0.887966206425
 N    3.313783223703   -1.112844263970    0.898442085954
 H    3.968319429035   -0.581041039570    1.466082862684
 H    3.392588311094   -2.113544407905    1.060025423943
 C    0.525977889736    1.353502294755    0.982908015524
 O    0.498397520631    2.581675379532    0.978819887096
 C   -0.546807236240    0.379808905481    0.989109213464
 N   -1.917880538009    0.566139950794    0.989034028748
 C   -2.411404032520   -0.672463063251    0.978703929083
 H   -3.468901945788   -0.926609685083    0.975757284657
 H   -1.550792208268   -2.647457278347    0.964002386258
NA   -1.907952151576    0.636209885142   -6.410627560233
