17

 N   -1.425748380407   -1.641249432860    1.012288735208
 C   -0.215560313563   -0.986043229184    1.016250359176
 N    1.017852100740   -1.584720923646    1.028288644081
 C    1.988275300796   -0.694544782035    1.016416187108
 N    1.785198463383    0.667093351479    1.009581026766
 H    2.589025588634    1.287053891234    0.927593004344
 N    3.313730055033   -1.113219503715    0.938068883873
 H    3.968266260365   -0.581416279315    1.505709660603
 H    3.392535142424   -2.113919647650    1.099652221862
 C    0.525924721066    1.353127055010    1.022534813443
 O    0.498344351961    2.581300139787    1.018446685015
 C   -0.546860404910    0.379433665736    1.028736011383
 N   -1.917933706679    0.565764711049    1.028660826667
 C   -2.411457201190   -0.672838302996    1.018330727002
 H   -3.468955114458   -0.926984924828    1.015384082576
 H   -1.550845376938   -2.647832518092    1.003629184177
NA   -1.907602818093    0.638675318411   -6.670987042949
