17

 N   -1.425801549076   -1.641624672605    1.051915533126
 C   -0.215613482232   -0.986418468929    1.055877157094
 N    1.017798932071   -1.585096163391    1.067915441999
 C    1.988222132127   -0.694920021780    1.056042985026
 N    1.785145294714    0.666718111734    1.049207824684
 H    2.588972419965    1.286678651489    0.967219802262
 N    3.313676886364   -1.113594743460    0.977695681791
 H    3.968213091696   -0.581791519060    1.545336458521
 H    3.392481973755   -2.114294887395    1.139279019780
 C    0.525871552397    1.352751815265    1.062161611361
 O    0.498291183292    2.580924900042    1.058073482933
 C   -0.546913573579    0.379058425991    1.068362809301
 N   -1.917986875348    0.565389471304    1.068287624585
 C   -2.411510369859   -0.673213542741    1.057957524920
 H   -3.469008283127   -0.927360164573    1.055010880494
 H   -1.550898545607   -2.648207757837    1.043255982095
NA   -1.907253484610    0.641140751680   -6.931346525665
