17

 N   -1.425819271966   -1.641749752520    1.065124465766
 C   -0.215631205122   -0.986543548844    1.069086089734
 N    1.017781209181   -1.585221243306    1.081124374639
 C    1.988204409237   -0.695045101695    1.069251917666
 N    1.785127571824    0.666593031819    1.062416757324
 H    2.588954697075    1.286553571574    0.980428734902
 N    3.313659163474   -1.113719823375    0.990904614431
 H    3.968195368806   -0.581916598975    1.558545391161
 H    3.392464250865   -2.114419967310    1.152487952420
 C    0.525853829507    1.352626735350    1.075370544001
 O    0.498273460402    2.580799820127    1.071282415573
 C   -0.546931296469    0.378933346076    1.081571741941
 N   -1.918004598238    0.565264391389    1.081496557225
 C   -2.411528092749   -0.673338622656    1.071166457560
 H   -3.469026006017   -0.927485244488    1.068219813134
 H   -1.550916268497   -2.648332837752    1.056464914735
NA   -1.907137040116    0.641962562770   -7.018133019903
