17

 N   -1.425836994856   -1.641874832436    1.078333398406
 C   -0.215648928012   -0.986668628760    1.082295022374
 N    1.017763486291   -1.585346323222    1.094333307279
 C    1.988186686347   -0.695170181611    1.082460850306
 N    1.785109848934    0.666467951903    1.075625689964
 H    2.588936974185    1.286428491658    0.993637667542
 N    3.313641440584   -1.113844903291    1.004113547071
 H    3.968177645916   -0.582041678891    1.571754323801
 H    3.392446527975   -2.114545047226    1.165696885060
 C    0.525836106617    1.352501655434    1.088579476641
 O    0.498255737512    2.580674740211    1.084491348213
 C   -0.546949019359    0.378808266160    1.094780674581
 N   -1.918022321128    0.565139311473    1.094705489865
 C   -2.411545815639   -0.673463702572    1.084375390200
 H   -3.469043728907   -0.927610324404    1.081428745774
 H   -1.550933991387   -2.648457917668    1.069673847375
NA   -1.907020595622    0.642784373860   -7.104919514142
