17

 N   -1.425854717746   -1.641999912351    1.091542331045
 C   -0.215666650902   -0.986793708675    1.095503955013
 N    1.017745763401   -1.585471403137    1.107542239918
 C    1.988168963457   -0.695295261526    1.095669782945
 N    1.785092126044    0.666342871988    1.088834622603
 H    2.588919251295    1.286303411743    1.006846600181
 N    3.313623717694   -1.113969983206    1.017322479710
 H    3.968159923026   -0.582166758806    1.584963256440
 H    3.392428805085   -2.114670127141    1.178905817699
 C    0.525818383727    1.352376575519    1.101788409280
 O    0.498238014622    2.580549660296    1.097700280852
 C   -0.546966742249    0.378683186245    1.107989607220
 N   -1.918040044018    0.565014231558    1.107914422504
 C   -2.411563538529   -0.673588782487    1.097584322839
 H   -3.469061451797   -0.927735404319    1.094637678413
 H   -1.550951714277   -2.648582997583    1.082882780014
NA   -1.906904151127    0.643606184949   -7.191706008380
