17

 N   -1.425907886416   -1.642375152096    1.131169128964
 C   -0.215719819572   -0.987168948420    1.135130752932
 N    1.017692594731   -1.585846642882    1.147169037837
 C    1.988115794787   -0.695670501271    1.135296580864
 N    1.785038957374    0.665967632243    1.128461420522
 H    2.588866082625    1.285928171998    1.046473398100
 N    3.313570549024   -1.114345222951    1.056949277629
 H    3.968106754356   -0.582541998551    1.624590054359
 H    3.392375636415   -2.115045366886    1.218532615618
 C    0.525765215057    1.352001335774    1.141415207199
 O    0.498184845952    2.580174420551    1.137327078771
 C   -0.547019910919    0.378307946500    1.147616405139
 N   -1.918093212688    0.564638991813    1.147541220423
 C   -2.411616707199   -0.673964022232    1.137211120758
 H   -3.469114620467   -0.928110644064    1.134264476332
 H   -1.551004882947   -2.648958237328    1.122509577933
NA   -1.906554817644    0.646071618218   -7.452065491096
