17

 N   -1.425943332195   -1.642625311926    1.157586994243
 C   -0.215755265351   -0.987419108250    1.161548618211
 N    1.017657148952   -1.586096802712    1.173586903116
 C    1.988080349008   -0.695920661101    1.161714446143
 N    1.785003511595    0.665717472413    1.154879285801
 H    2.588830636846    1.285678012168    1.072891263379
 N    3.313535103245   -1.114595382781    1.083367142908
 H    3.968071308577   -0.582792158381    1.651007919638
 H    3.392340190636   -2.115295526716    1.244950480897
 C    0.525729769278    1.351751175944    1.167833072478
 O    0.498149400173    2.579924260721    1.163744944050
 C   -0.547055356698    0.378057786670    1.174034270418
 N   -1.918128658467    0.564388831983    1.173959085702
 C   -2.411652152978   -0.674214182062    1.163628986037
 H   -3.469150066246   -0.928360803894    1.160682341611
 H   -1.551040328726   -2.649208397158    1.148927443212
NA   -1.906321928656    0.647715240398   -7.625638479573
