17

 N   -1.426014223755   -1.643125631586    1.210422724802
 C   -0.215826156911   -0.987919427910    1.214384348770
 N    1.017586257392   -1.586597122372    1.226422633675
 C    1.988009457448   -0.696420980761    1.214550176702
 N    1.784932620035    0.665217152753    1.207715016360
 H    2.588759745286    1.285177692508    1.125726993938
 N    3.313464211685   -1.115095702441    1.136202873467
 H    3.968000417017   -0.583292478041    1.703843650197
 H    3.392269299076   -2.115795846376    1.297786211456
 C    0.525658877718    1.351250856284    1.220668803037
 O    0.498078508613    2.579423941061    1.216580674609
 C   -0.547126248258    0.377557467010    1.226870000977
 N   -1.918199550027    0.563888512323    1.226794816261
 C   -2.411723044538   -0.674714501722    1.216464716596
 H   -3.469220957806   -0.928861123554    1.213518072170
 H   -1.551111220286   -2.649708716818    1.201763173771
NA   -1.905856150678    0.651002484756   -7.972784456527
