17

 N   -1.426049669535   -1.643375791416    1.236840590081
 C   -0.215861602691   -0.988169587740    1.240802214049
 N    1.017550811612   -1.586847282202    1.252840498954
 C    1.987974011668   -0.696671140591    1.240968041981
 N    1.784897174255    0.664966992923    1.234132881639
 H    2.588724299506    1.284927532678    1.152144859217
 N    3.313428765905   -1.115345862271    1.162620738746
 H    3.967964971237   -0.583542637871    1.730261515476
 H    3.392233853296   -2.116046006206    1.324204076735
 C    0.525623431938    1.351000696454    1.247086668316
 O    0.498043062833    2.579173781231    1.242998539888
 C   -0.547161694038    0.377307307180    1.253287866256
 N   -1.918234995807    0.563638352493    1.253212681540
 C   -2.411758490318   -0.674964661552    1.242882581875
 H   -3.469256403586   -0.929111283384    1.239935937449
 H   -1.551146666066   -2.649958876648    1.228181039050
NA   -1.905623261690    0.652646106936   -8.146357445004
