17

 N   -1.426085115315   -1.643625951246    1.263258455360
 C   -0.215897048471   -0.988419747570    1.267220079328
 N    1.017515365832   -1.587097442032    1.279258364233
 C    1.987938565888   -0.696921300421    1.267385907260
 N    1.784861728475    0.664716833093    1.260550746918
 H    2.588688853726    1.284677372848    1.178562724496
 N    3.313393320125   -1.115596022101    1.189038604025
 H    3.967929525457   -0.583792797701    1.756679380755
 H    3.392198407516   -2.116296166036    1.350621942014
 C    0.525587986158    1.350750536624    1.273504533595
 O    0.498007617053    2.578923621401    1.269416405167
 C   -0.547197139818    0.377057147350    1.279705731535
 N   -1.918270441587    0.563388192663    1.279630546819
 C   -2.411793936098   -0.675214821382    1.269300447154
 H   -3.469291849366   -0.929361443214    1.266353802728
 H   -1.551182111846   -2.650209036478    1.254598904329
NA   -1.905390372701    0.654289729115   -8.319930433481
