13

 C    1.100076178427    1.609360180622    0.306686525350
 H    0.633456178427    2.601527180622    0.306686525350
 H    1.737225178427    1.504943180622    1.199192525350
 H    1.737225178427    1.504943180622   -0.585819474650
 C    0.001901178427    0.558275180622    0.306686525350
 O   -1.204261821573    0.836329180622    0.306686525350
 N    0.432830178427   -0.741873819378    0.306686525350
 H    1.425007178427   -0.935774819378    0.306686525350
 C   -0.525504821573   -1.840401819378    0.306686525350
 H   -1.169569821573   -1.791922819378    1.197394525350
 H   -1.169569821573   -1.791922819378   -0.584021474650
 H    0.027721178427   -2.788826819378    0.306686525350
LI    0.432830178427   -0.741873819378   -3.193313474650
