13

 C    1.100076178427    1.609360180622    0.744810132994
 H    0.633456178427    2.601527180622    0.744810132994
 H    1.737225178427    1.504943180622    1.637316132994
 H    1.737225178427    1.504943180622   -0.147695867006
 C    0.001901178427    0.558275180622    0.744810132994
 O   -1.204261821573    0.836329180622    0.744810132994
 N    0.432830178427   -0.741873819378    0.744810132994
 H    1.425007178427   -0.935774819378    0.744810132994
 C   -0.525504821573   -1.840401819378    0.744810132994
 H   -1.169569821573   -1.791922819378    1.635518132994
 H   -1.169569821573   -1.791922819378   -0.145897867006
 H    0.027721178427   -2.788826819378    0.744810132994
LI    0.432830178427   -0.741873819378   -7.755189867006
