11

 H   -0.740845055171    1.412379270516    3.640772648667
 H   -0.110245055171   -0.182540729484    3.169832648667
 H   -1.712795055171    0.353369270516    2.595152648667
 C   -0.684565055171    0.688409270516    2.811312648667
 S    0.107704944829    1.472539270516    1.339442648667
NA   -0.036045055171   -0.492800729484   -0.448257351333
 S   -0.090073060240   -1.231467856318   -1.120159018546
 C    0.702199609751   -0.447332648689   -2.592031087763
 H    0.758476996456   -1.171295961848   -3.421486172108
 H    0.127880099379    0.423622115019   -2.950548621620
 H    1.730439017980   -0.112290172626   -2.375868361562
