11

 H   -0.729992529499    1.560754246545    3.775736545320
 H   -0.099392529499   -0.034165753455    3.304796545320
 H   -1.701942529499    0.501744246545    2.730116545320
 C   -0.673712529499    0.836784246545    2.946276545320
 S    0.118557470501    1.620914246545    1.474406545320
NA   -0.025192529499   -0.344425753455   -0.313293454680
 S   -0.106234537103   -1.452426443706   -1.321145955500
 C    0.686038132888   -0.668291236077   -2.793018024717
 H    0.742315519594   -1.392254549235   -3.622473109062
 H    0.111718622517    0.202663527631   -3.151535558574
 H    1.714277541117   -0.333248760014   -2.576855298516
