11

 H   -0.727822024365    1.590429241751    3.802729324650
 H   -0.097222024365   -0.004490758249    3.331789324650
 H   -1.699772024365    0.531419241751    2.757109324650
 C   -0.671542024365    0.866459241751    2.973269324650
 S    0.120727975635    1.650589241751    1.501399324650
NA   -0.023022024365   -0.314750758249   -0.286300675350
 S   -0.109466832475   -1.496618161183   -1.361343342891
 C    0.682805837516   -0.712482953554   -2.833215412108
 H    0.739083224221   -1.436446266713   -3.662670496453
 H    0.108486327144    0.158471810153   -3.191732945964
 H    1.711045245745   -0.377440477492   -2.617052685907
