11

 H   -0.725651519230    1.620104236956    3.829722103981
 H   -0.095051519230    0.025184236956    3.358782103981
 H   -1.697601519230    0.561094236956    2.784102103981
 C   -0.669371519230    0.896134236956    3.000262103981
 S    0.122898480770    1.680264236956    1.528392103981
NA   -0.020851519230   -0.285075763044   -0.259307896019
 S   -0.112699127848   -1.540809878661   -1.401540730282
 C    0.679573542143   -0.756674671032   -2.873412799499
 H    0.735850928849   -1.480637984190   -3.702867883844
 H    0.105254031772    0.114280092676   -3.231930333355
 H    1.707812950372   -0.421632194969   -2.657250073297
