11

 H   -0.721310508962    1.679454227368    3.883707662642
 H   -0.090710508962    0.084534227368    3.412767662642
 H   -1.693260508962    0.620444227368    2.838087662642
 C   -0.665030508962    0.955484227368    3.054247662642
 S    0.127239491038    1.739614227368    1.582377662642
NA   -0.016510508962   -0.225725772632   -0.205322337358
 S   -0.119163718593   -1.629193313616   -1.481935505063
 C    0.673108951398   -0.845058105987   -2.953807574280
 H    0.729386338104   -1.569021419145   -3.783262658625
 H    0.098789441027    0.025896657721   -3.312325108137
 H    1.701348359627   -0.510015629924   -2.737644848079
