11

 H   -0.545499593075    4.083128839039    6.070122788413
 H    0.085100406925    2.488208839039    5.599182788413
 H   -1.517449593075    3.024118839039    5.024502788413
 C   -0.489219593075    3.359158839039    5.240662788413
 S    0.303050406925    4.143288839039    3.768792788413
NA    0.159300406925    2.177948839039    1.981092788413
 S   -0.380979643766   -5.208722429297   -4.737923883717
 C    0.411293026225   -4.424587221668   -6.209795952934
 H    0.467570412931   -5.148550534827   -7.039251037280
 H   -0.163026484146   -3.553632457961   -6.568313486791
 H    1.439532434454   -4.089544745606   -5.993633226733
