11

 H   -0.719140003827    1.709129222574    3.910700441972
 H   -0.088540003827    0.114209222574    3.439760441972
 H   -1.691090003827    0.650119222574    2.865080441972
 C   -0.662860003827    0.985159222574    3.081240441972
 S    0.129409996173    1.769289222574    1.609370441972
NA   -0.014340003827   -0.196050777426   -0.178329558028
 S   -0.122396013965   -1.673385031093   -1.522132892454
 C    0.669876656026   -0.889249823464   -2.994004961671
 H    0.726154042731   -1.613213136623   -3.823460046016
 H    0.095557145654   -0.018295059757   -3.352522495528
 H    1.698116064255   -0.554207347402   -2.777842235470
