11

 H   -0.712628488424    1.798154208191    3.991678779964
 H   -0.082028488424    0.203234208191    3.520738779964
 H   -1.684578488424    0.739144208191    2.946058779964
 C   -0.656348488424    1.074184208191    3.162218779964
 S    0.135921511576    1.858314208191    1.690348779964
NA   -0.007828488424   -0.107025791809   -0.097351220036
 S   -0.132092900083   -1.805960183526   -1.642725054626
 C    0.660179769908   -1.021824975897   -3.114597123844
 H    0.716457156614   -1.745788289056   -3.944052208189
 H    0.085860259537   -0.150870212190   -3.473114657700
 H    1.688419178137   -0.686782499834   -2.898434397642
