11

 H   -0.708287478155    1.857504198603    4.045664338625
 H   -0.077687478155    0.262584198603    3.574724338625
 H   -1.680237478155    0.798494198603    3.000044338625
 C   -0.652007478155    1.133534198603    3.216204338625
 S    0.140262521845    1.917664198603    1.744334338625
NA   -0.003487478155   -0.047675801397   -0.043365661375
 S   -0.138557490828   -1.894343618481   -1.723119829408
 C    0.653715179163   -1.110208410852   -3.194991898625
 H    0.709992565869   -1.834171724011   -4.024446982970
 H    0.079395668792   -0.239253647145   -3.553509432482
 H    1.681954587392   -0.775165934790   -2.978829172424
