11

 H   -0.701775962752    1.946529184220    4.126642676616
 H   -0.071175962752    0.351609184220    3.655702676616
 H   -1.673725962752    0.887519184220    3.081022676616
 C   -0.645495962752    1.222559184220    3.297182676616
 S    0.146774037248    2.006689184220    1.825312676616
NA    0.003024037248    0.041349184220    0.037612676616
 S   -0.148254376945   -2.026918770914   -1.843711991580
 C    0.644018293046   -1.242783563285   -3.315584060798
 H    0.700295679751   -1.966746876443   -4.145039145143
 H    0.069698782674   -0.371828799577   -3.674101594654
 H    1.672257701275   -0.907741087222   -3.099421334596
