11

 H   -0.699605457618    1.976204179426    4.153635455947
 H   -0.069005457618    0.381284179426    3.682695455947
 H   -1.671555457618    0.917194179426    3.108015455947
 C   -0.643325457618    1.252234179426    3.324175455947
 S    0.148944542382    2.036364179426    1.852305455947
NA    0.005194542382    0.071024179426    0.064605455947
 S   -0.151486672318   -2.071110488391   -1.883909378971
 C    0.640785997673   -1.286975280762   -3.355781448188
 H    0.697063384379   -2.010938593921   -4.185236532533
 H    0.066466487302   -0.416020517055   -3.714298982045
 H    1.669025405902   -0.951932804700   -3.139618721987
