11

 H   -0.684411921677    2.183929145867    4.342584911260
 H   -0.053811921677    0.589009145867    3.871644911260
 H   -1.656361921677    1.124919145867    3.296964911260
 C   -0.628131921677    1.459959145867    3.513124911260
 S    0.164138078323    2.244089145867    2.041254911260
NA    0.020388078323    0.278749145867    0.253554911260
 S   -0.174112739925   -2.380452510734   -2.165291090707
 C    0.618159930066   -1.596317303105   -3.637163159924
 H    0.674437316771   -2.320280616264   -4.466618244269
 H    0.043840419694   -0.725362539398   -3.995680693780
 H    1.646399338295   -1.261274827043   -3.421000433722
