11

 H   -0.673559396005    2.332304121896    4.477548807913
 H   -0.042959396005    0.737384121896    4.006608807913
 H   -1.645509396005    1.273294121896    3.431928807913
 C   -0.617279396005    1.608334121896    3.648088807913
 S    0.174990603995    2.392464121896    2.176218807913
NA    0.031240603995    0.427124121896    0.388518807913
 S   -0.190274216788   -2.601411098122   -2.366278027660
 C    0.601998453203   -1.817275890493   -3.838150096878
 H    0.658275839909   -2.541239203652   -4.667605181223
 H    0.027678942832   -0.946321126785   -4.196667630734
 H    1.630237861432   -1.482233414430   -3.621987370676
