11

 H   -0.660536365198    2.510354093131    4.639505483896
 H   -0.029936365198    0.915434093131    4.168565483896
 H   -1.632486365198    1.451344093131    3.593885483896
 C   -0.604256365198    1.786384093131    3.810045483896
 S    0.188013634802    2.570514093131    2.338175483896
NA    0.044263634802    0.605174093131    0.550475483896
 S   -0.209667989023   -2.866561402987   -2.607462352005
 C    0.582604680968   -2.082426195358   -4.079334421223
 H    0.638882067674   -2.806389508517   -4.908789505568
 H    0.008285170597   -1.211471431651   -4.437851955079
 H    1.610844089197   -1.747383719296   -3.863171695021
