11

 H   -0.656195354930    2.569704083542    4.693491042557
 H   -0.025595354930    0.974784083542    4.222551042557
 H   -1.628145354930    1.510694083542    3.647871042557
 C   -0.599915354930    1.845734083542    3.864031042557
 S    0.192354645070    2.629864083542    2.392161042557
NA    0.048604645070    0.664524083542    0.604461042557
 S   -0.216132579768   -2.954944837942   -2.687857126787
 C    0.576140090223   -2.170809630313   -4.159729196004
 H    0.632417476929   -2.894772943472   -4.989184280349
 H    0.001820579852   -1.299854866606   -4.518246729861
 H    1.604379498452   -1.835767154251   -3.943566469803
