11

 H   -0.645342829258    2.718079059571    4.828454939210
 H   -0.014742829258    1.123159059571    4.357514939210
 H   -1.617292829258    1.659069059571    3.782834939210
 C   -0.589062829258    1.994109059571    3.998994939210
 S    0.203207170742    2.778239059571    2.527124939210
NA    0.059457170742    0.812899059571    0.739424939210
 S   -0.232294056630   -3.175903425330   -2.888844063741
 C    0.559978613360   -2.391768217701   -4.360716132958
 H    0.616256000066   -3.115731530860   -5.190171217303
 H   -0.014340897011   -1.520813453994   -4.719233666814
 H    1.588218021589   -2.056725741638   -4.144553406757
