11

 H   -0.641001818989    2.777429049983    4.882440497871
 H   -0.010401818989    1.182509049983    4.411500497871
 H   -1.612951818989    1.718419049983    3.836820497871
 C   -0.584721818989    2.053459049983    4.052980497871
 S    0.207548181011    2.837589049983    2.581110497871
NA    0.063798181011    0.872249049983    0.793410497871
 S   -0.238758647375   -3.264286860285   -2.969238838522
 C    0.553514022615   -2.480151652656   -4.441110907740
 H    0.609791409321   -3.204114965815   -5.270565992085
 H   -0.020805487756   -1.609196888949   -4.799628441596
 H    1.581753430844   -2.145109176594   -4.224948181538
