11

 H   -0.638831313854    2.807104045189    4.909433277201
 H   -0.008231313854    1.212184045189    4.438493277201
 H   -1.610781313854    1.748094045189    3.863813277201
 C   -0.582551313854    2.083134045189    4.079973277201
 S    0.209718686146    2.867264045189    2.608103277201
NA    0.065968686146    0.901924045189    0.820403277201
 S   -0.241990942748   -3.308478577763   -3.009436225913
 C    0.550281727243   -2.524343370134   -4.481308295130
 H    0.606559113949   -3.248306683292   -5.310763379476
 H   -0.024037783128   -1.653388606426   -4.839825828987
 H    1.578521135472   -2.189300894071   -4.265145568929
