11

 H   -0.632319798451    2.896129030806    4.990411615193
 H   -0.001719798451    1.301209030806    4.519471615193
 H   -1.604269798451    1.837119030806    3.944791615193
 C   -0.576039798451    2.172159030806    4.160951615193
 S    0.216230201549    2.956289030806    2.689081615193
NA    0.072480201549    0.990949030806    0.901381615193
 S   -0.251687828865   -3.441053730195   -3.130028388086
 C    0.540584841125   -2.656918522566   -4.601900457303
 H    0.596862227831   -3.380881835725   -5.431355541648
 H   -0.033734669246   -1.785963758859   -4.960417991159
 H    1.568824249354   -2.321876046504   -4.385737731101
