11

 H   -0.619296767645    3.074179002041    5.152368291176
 H    0.011303232355    1.479259002041    4.681428291176
 H   -1.591246767645    2.015169002041    4.106748291176
 C   -0.563016767645    2.350209002041    4.322908291176
 S    0.229253232355    3.134339002041    2.851038291176
NA    0.085503232355    1.168999002041    1.063338291176
 S   -0.271081601100   -3.706204035061   -3.371212712430
 C    0.521191068890   -2.922068827432   -4.843084781648
 H    0.577468455596   -3.646032140590   -5.672539865993
 H   -0.053128441481   -2.051114063724   -5.201602315504
 H    1.549430477119   -2.587026351369   -4.626922055446
