11

 H   -0.604103231704    3.281903968482    5.341317746489
 H    0.026496768296    1.686983968482    4.870377746489
 H   -1.576053231704    2.222893968482    4.295697746489
 C   -0.547823231704    2.557933968482    4.511857746489
 S    0.244446768296    3.342063968482    3.039987746489
NA    0.100696768296    1.376723968482    1.252287746489
 S   -0.293707668708   -4.015546057404   -3.652594424166
 C    0.498565001283   -3.231410849774   -5.124466493383
 H    0.554842387989   -3.955374162933   -5.953921577728
 H   -0.075754509088   -2.360456086067   -5.482984027240
 H    1.526804409512   -2.896368373712   -4.908303767182
