11

 H   -0.601932726570    3.311578963688    5.368310525820
 H    0.028667273430    1.716658963688    4.897370525820
 H   -1.573882726570    2.252568963688    4.322690525820
 C   -0.545652726570    2.587608963688    4.538850525820
 S    0.246617273430    3.371738963688    3.066980525820
NA    0.102867273430    1.406398963688    1.279280525820
 S   -0.296939964080   -4.059737774881   -3.692791811557
 C    0.495332705910   -3.275602567252   -5.164663880774
 H    0.551610092616   -3.999565880411   -5.994118965119
 H   -0.078986804461   -2.404647803545   -5.523181414630
 H    1.523572114139   -2.940560091189   -4.948501154573
