11

 H   -0.599762221435    3.341253958893    5.395303305150
 H    0.030837778565    1.746333958893    4.924363305150
 H   -1.571712221435    2.282243958893    4.349683305150
 C   -0.543482221435    2.617283958893    4.565843305150
 S    0.248787778565    3.401413958893    3.093973305150
NA    0.105037778565    1.436073958893    1.306273305150
 S   -0.300172259453   -4.103929492359   -3.732989198947
 C    0.492100410538   -3.319794284730   -5.204861268165
 H    0.548377797244   -4.043757597888   -6.034316352510
 H   -0.082219099833   -2.448839521022   -5.563378802021
 H    1.520339818767   -2.984751808667   -4.988698541963
