11

 H   -0.597591716301    3.370928954099    5.422296084481
 H    0.033008283699    1.776008954099    4.951356084481
 H   -1.569541716301    2.311918954099    4.376676084481
 C   -0.541311716301    2.646958954099    4.592836084481
 S    0.250958283699    3.431088954099    3.120966084481
NA    0.107208283699    1.465748954099    1.333266084481
 S   -0.303404554825   -4.148121209836   -3.773186586338
 C    0.488868115165   -3.363986002207   -5.245058655556
 H    0.545145501871   -4.087949315366   -6.074513739901
 H   -0.085451395206   -2.493031238500   -5.603576189412
 H    1.517107523394   -3.028943526145   -5.028895929354
