11

 H   -0.586739190629    3.519303930128    5.557259981133
 H    0.043860809371    1.924383930128    5.086319981133
 H   -1.558689190629    2.460293930128    4.511639981133
 C   -0.530459190629    2.795333930128    4.727799981133
 S    0.261810809371    3.579463930128    3.255929981133
NA    0.118060809371    1.614123930128    1.468229981133
 S   -0.319566031688   -4.369079797224   -3.974173523292
 C    0.472706638303   -3.584944589595   -5.446045592509
 H    0.528984025009   -4.308907902754   -6.275500676854
 H   -0.101612872068   -2.713989825887   -5.804563126366
 H    1.500946046532   -3.249902113532   -5.229882866308
