11

 H   -0.578057170091    3.638003910952    5.665231098455
 H    0.052542829909    2.043083910952    5.194291098455
 H   -1.550007170091    2.578993910952    4.619611098455
 C   -0.521777170091    2.914033910952    4.835771098455
 S    0.270492829909    3.698163910952    3.363901098455
NA    0.126742829909    1.732823910952    1.576201098455
 S   -0.332495213178   -4.545846667134   -4.134963072855
 C    0.459777456813   -3.761711459505   -5.606835142073
 H    0.516054843518   -4.485674772664   -6.436290226418
 H   -0.114542053558   -2.890756695798   -5.965352675929
 H    1.488016865042   -3.426668983443   -5.390672415871
