11

 H   -0.575886664957    3.667678906157    5.692223877786
 H    0.054713335043    2.072758906157    5.221283877786
 H   -1.547836664957    2.608668906157    4.646603877786
 C   -0.519606664957    2.943708906157    4.862763877786
 S    0.272663335043    3.727838906157    3.390893877786
NA    0.128913335043    1.762498906157    1.603193877786
 S   -0.335727508550   -4.590038384612   -4.175160460246
 C    0.456545161440   -3.805903176983   -5.647032529463
 H    0.512822548146   -4.529866490141   -6.476487613808
 H   -0.117774348931   -2.934948413275   -6.005550063320
 H    1.484784569669   -3.470860700920   -5.430869803262
