11

 H   -0.573716159823    3.697353901363    5.719216657116
 H    0.056883840177    2.102433901363    5.248276657116
 H   -1.545666159823    2.638343901363    4.673596657116
 C   -0.517436159823    2.973383901363    4.889756657116
 S    0.274833840177    3.757513901363    3.417886657116
NA    0.131083840177    1.792173901363    1.630186657116
 S   -0.338959803923   -4.634230102089   -4.215357847637
 C    0.453312866068   -3.850094894460   -5.687229916854
 H    0.509590252773   -4.574058207619   -6.516685001199
 H   -0.121006644303   -2.979140130753   -6.045747450711
 H    1.481552274297   -3.515052418398   -5.471067190653
