11

 H   -0.569375149554    3.756703891775    5.773202215777
 H    0.061224850446    2.161783891775    5.302262215777
 H   -1.541325149554    2.697693891775    4.727582215777
 C   -0.513095149554    3.032733891775    4.943742215777
 S    0.279174850446    3.816863891775    3.471872215777
NA    0.135424850446    1.851523891775    1.684172215777
 S   -0.345424394668   -4.722613537044   -4.295752622418
 C    0.446848275323   -3.938478329415   -5.767624691636
 H    0.503125662028   -4.662441642574   -6.597079775981
 H   -0.127471235048   -3.067523565708   -6.126142225492
 H    1.475087683552   -3.603435853353   -5.551461965434
