11

 H   -0.565034139285    3.816053882186    5.827187774439
 H    0.065565860715    2.221133882186    5.356247774439
 H   -1.536984139285    2.757043882186    4.781567774439
 C   -0.508754139285    3.092083882186    4.997727774439
 S    0.283515860715    3.876213882186    3.525857774439
NA    0.139765860715    1.910873882186    1.738157774439
 S   -0.351888985413   -4.810996971999   -4.376147397200
 C    0.440383684578   -4.026861764370   -5.848019466417
 H    0.496661071283   -4.750825077529   -6.677474550762
 H   -0.133935825793   -3.155907000663   -6.206537000274
 H    1.468623092807   -3.691819288308   -5.631856740216
