11

 H   -0.558522623882    3.905078867804    5.908166112430
 H    0.072077376118    2.310158867804    5.437226112430
 H   -1.530472623882    2.846068867804    4.862546112430
 C   -0.502242623882    3.181108867804    5.078706112430
 S    0.290027376118    3.965238867804    3.606836112430
NA    0.146277376118    1.999898867804    1.819136112430
 S   -0.361585871531   -4.943572124432   -4.496739559372
 C    0.430686798460   -4.159436916803   -5.968611628590
 H    0.486964185166   -4.883400229962   -6.798066712935
 H   -0.143632711911   -3.288482153096   -6.327129162446
 H    1.458926206689   -3.824394440740   -5.752448902388
