8

 C    0.065750073061   -2.002096833705    0.000000000000
 H    1.101250073061   -2.378184833705    0.000000000000
 H   -0.467449926939   -2.382799833705    0.888337000000
 H   -0.467449926939   -2.382799833705   -0.888337000000
 C    0.023984073061   -0.446012833705    0.000000000000
 O   -1.143211926939    0.060210166295    0.000000000000
 O    1.148055073061    0.149405166295    0.000000000000
 K   -0.033927146475    0.852696637521    0.000000000000
