8

 C    0.072836306050   -2.161011772325    0.000000000000
 H    1.108336306050   -2.537099772325    0.000000000000
 H   -0.460363693950   -2.541714772325    0.888337000000
 H   -0.460363693950   -2.541714772325   -0.888337000000
 C    0.031070306050   -0.604927772325    0.000000000000
 O   -1.136125693950   -0.098704772325    0.000000000000
 O    1.155141306050   -0.009509772325    0.000000000000
 K   -0.044659750267    1.093384613125    0.000000000000
