8

 C    0.087008772028   -2.478841649563    0.000000000000
 H    1.122508772028   -2.854929649563    0.000000000000
 H   -0.446191227972   -2.859544649563    0.888337000000
 H   -0.446191227972   -2.859544649563   -0.888337000000
 C    0.045242772028   -0.922757649563    0.000000000000
 O   -1.121953227972   -0.416534649563    0.000000000000
 O    1.169313772028   -0.327339649563    0.000000000000
 K   -0.066124957850    1.574760564333    0.000000000000
