8

 C    0.092323446769   -2.598027853527    0.000000000000
 H    1.127823446769   -2.974115853527    0.000000000000
 H   -0.440876553231   -2.978730853527    0.888337000000
 H   -0.440876553231   -2.978730853527   -0.888337000000
 C    0.050557446769   -1.041943853527    0.000000000000
 O   -1.116638553231   -0.535720853527    0.000000000000
 O    1.174628446769   -0.446525853527    0.000000000000
 K   -0.074174410694    1.755276546036    0.000000000000
