8

 C    0.099409679758   -2.756942792147    0.000000000000
 H    1.134909679758   -3.133030792147    0.000000000000
 H   -0.433790320242   -3.137645792147    0.888337000000
 H   -0.433790320242   -3.137645792147   -0.888337000000
 C    0.057643679758   -1.200858792147    0.000000000000
 O   -1.109552320242   -0.694635792147    0.000000000000
 O    1.181714679758   -0.605440792147    0.000000000000
 K   -0.084907014485    1.995964521640    0.000000000000
