8

 C    0.101181238006   -2.796671526801    0.000000000000
 H    1.136681238006   -3.172759526801    0.000000000000
 H   -0.432018761994   -3.177374526801    0.888337000000
 H   -0.432018761994   -3.177374526801   -0.888337000000
 C    0.059415238006   -1.240587526801    0.000000000000
 O   -1.107780761994   -0.734364526801    0.000000000000
 O    1.183486238006   -0.645169526801    0.000000000000
 K   -0.087590165433    2.056136515541    0.000000000000
