8

 C    0.104724354500   -2.876128996111    0.000000000000
 H    1.140224354500   -3.252216996111    0.000000000000
 H   -0.428475645500   -3.256831996111    0.888337000000
 H   -0.428475645500   -3.256831996111   -0.888337000000
 C    0.062958354500   -1.320044996111    0.000000000000
 O   -1.104237645500   -0.813821996111    0.000000000000
 O    1.187029354500   -0.724626996111    0.000000000000
 K   -0.092956467329    2.176480503343    0.000000000000
