8

 C    0.117125262231   -3.154230138695    0.000000000000
 H    1.152625262231   -3.530318138695    0.000000000000
 H   -0.416074737769   -3.534933138695    0.888337000000
 H   -0.416074737769   -3.534933138695   -0.888337000000
 C    0.075359262231   -1.598146138695    0.000000000000
 O   -1.091836737769   -1.091923138695    0.000000000000
 O    1.199430262231   -1.002728138695    0.000000000000
 K   -0.111738523964    2.597684460651    0.000000000000
