8

 C    0.118896820478   -3.193958873349    0.000000000000
 H    1.154396820478   -3.570046873349    0.000000000000
 H   -0.414303179522   -3.574661873349    0.888337000000
 H   -0.414303179522   -3.574661873349   -0.888337000000
 C    0.077130820478   -1.637874873349    0.000000000000
 O   -1.090065179522   -1.131651873349    0.000000000000
 O    1.201201820478   -1.042456873349    0.000000000000
 K   -0.114421674912    2.657856454552    0.000000000000
