8

 C    0.122439936972   -3.273416342659    0.000000000000
 H    1.157939936972   -3.649504342659    0.000000000000
 H   -0.410760063028   -3.654119342659    0.888337000000
 H   -0.410760063028   -3.654119342659   -0.888337000000
 C    0.080673936972   -1.717332342659    0.000000000000
 O   -1.086522063028   -1.211109342659    0.000000000000
 O    1.204744936972   -1.121914342659    0.000000000000
 K   -0.119787976808    2.778200442354    0.000000000000
