8

 C    0.124211495220   -3.313145077314    0.000000000000
 H    1.159711495220   -3.689233077314    0.000000000000
 H   -0.408988504780   -3.693848077314    0.888337000000
 H   -0.408988504780   -3.693848077314   -0.888337000000
 C    0.082445495220   -1.757061077314    0.000000000000
 O   -1.084750504780   -1.250838077314    0.000000000000
 O    1.206516495220   -1.161643077314    0.000000000000
 K   -0.122471127756    2.838372436255    0.000000000000
