8

 C    0.125983053467   -3.352873811969    0.000000000000
 H    1.161483053467   -3.728961811969    0.000000000000
 H   -0.407216946533   -3.733576811969    0.888337000000
 H   -0.407216946533   -3.733576811969   -0.888337000000
 C    0.084217053467   -1.796789811969    0.000000000000
 O   -1.082978946533   -1.290566811969    0.000000000000
 O    1.208288053467   -1.201371811969    0.000000000000
 K   -0.125154278704    2.898544430156    0.000000000000
