8

 C    0.131297728208   -3.472060015933    0.000000000000
 H    1.166797728208   -3.848148015933    0.000000000000
 H   -0.401902271792   -3.852763015933    0.888337000000
 H   -0.401902271792   -3.852763015933   -0.888337000000
 C    0.089531728208   -1.915976015933    0.000000000000
 O   -1.077664271792   -1.409753015933    0.000000000000
 O    1.213602728208   -1.320558015933    0.000000000000
 K   -0.133203731547    3.079060411859    0.000000000000
