8

 C    0.134840844703   -3.551517485243    0.000000000000
 H    1.170340844703   -3.927605485243    0.000000000000
 H   -0.398359155297   -3.932220485243    0.888337000000
 H   -0.398359155297   -3.932220485243   -0.888337000000
 C    0.093074844703   -1.995433485243    0.000000000000
 O   -1.074121155297   -1.489210485243    0.000000000000
 O    1.217145844703   -1.400015485243    0.000000000000
 K   -0.138570033443    3.199404399661    0.000000000000
