8

 C    0.140155519445   -3.670703689207    0.000000000000
 H    1.175655519445   -4.046791689207    0.000000000000
 H   -0.393044480555   -4.051406689207    0.888337000000
 H   -0.393044480555   -4.051406689207   -0.888337000000
 C    0.098389519445   -2.114619689207    0.000000000000
 O   -1.068806480555   -1.608396689207    0.000000000000
 O    1.222460519445   -1.519201689207    0.000000000000
 K   -0.146619486287    3.379920381364    0.000000000000
