8

 C    0.149013310681   -3.869347362481    0.000000000000
 H    1.184513310681   -4.245435362481    0.000000000000
 H   -0.384186689319   -4.250050362481    0.888337000000
 H   -0.384186689319   -4.250050362481   -0.888337000000
 C    0.107247310681   -2.313263362481    0.000000000000
 O   -1.059948689319   -1.807040362481    0.000000000000
 O    1.231318310681   -1.717845362481    0.000000000000
 K   -0.160035241026    3.680780350869    0.000000000000
