8

 C    0.150784868928   -3.909076097136    0.000000000000
 H    1.186284868928   -4.285164097136    0.000000000000
 H   -0.382415131072   -4.289779097136    0.888337000000
 H   -0.382415131072   -4.289779097136   -0.888337000000
 C    0.109018868928   -2.352992097136    0.000000000000
 O   -1.058177131072   -1.846769097136    0.000000000000
 O    1.233089868928   -1.757574097136    0.000000000000
 K   -0.162718391974    3.740952344770    0.000000000000
