8

 C    0.152556427175   -3.948804831791    0.000000000000
 H    1.188056427175   -4.324892831791    0.000000000000
 H   -0.380643572825   -4.329507831791    0.888337000000
 H   -0.380643572825   -4.329507831791   -0.888337000000
 C    0.110790427175   -2.392720831791    0.000000000000
 O   -1.056405572825   -1.886497831791    0.000000000000
 O    1.234861427175   -1.797302831791    0.000000000000
 K   -0.165401542922    3.801124338671    0.000000000000
