8

 C    0.163185776658   -4.187177239720    0.000000000000
 H    1.198685776658   -4.563265239720    0.000000000000
 H   -0.370014223342   -4.567880239720    0.888337000000
 H   -0.370014223342   -4.567880239720   -0.888337000000
 C    0.121419776658   -2.631093239720    0.000000000000
 O   -1.045776223342   -2.124870239720    0.000000000000
 O    1.245490776658   -2.035675239720    0.000000000000
 K   -0.181500448609    4.162156302077    0.000000000000
