8

 C    0.166728893153   -4.266634709029    0.000000000000
 H    1.202228893153   -4.642722709029    0.000000000000
 H   -0.366471106847   -4.647337709029    0.888337000000
 H   -0.366471106847   -4.647337709029   -0.888337000000
 C    0.124962893153   -2.710550709029    0.000000000000
 O   -1.042233106847   -2.204327709029    0.000000000000
 O    1.249033893153   -2.115132709029    0.000000000000
 K   -0.186866750505    4.282500289879    0.000000000000
