8

 C    0.172043567895   -4.385820912994    0.000000000000
 H    1.207543567895   -4.761908912994    0.000000000000
 H   -0.361156432105   -4.766523912994    0.888337000000
 H   -0.361156432105   -4.766523912994   -0.888337000000
 C    0.130277567895   -2.829736912994    0.000000000000
 O   -1.036918432105   -2.323513912994    0.000000000000
 O    1.254348567895   -2.234318912994    0.000000000000
 K   -0.194916203349    4.463016271583    0.000000000000
