8

 C    0.175586684389   -4.465278382303    0.000000000000
 H    1.211086684389   -4.841366382303    0.000000000000
 H   -0.357613315611   -4.845981382303    0.888337000000
 H   -0.357613315611   -4.845981382303   -0.888337000000
 C    0.133820684389   -2.909194382303    0.000000000000
 O   -1.033375315611   -2.402971382303    0.000000000000
 O    1.257891684389   -2.313776382303    0.000000000000
 K   -0.200282505244    4.583360259385    0.000000000000
