8

 C    0.177358242636   -4.505007116958    0.000000000000
 H    1.212858242636   -4.881095116958    0.000000000000
 H   -0.355841757364   -4.885710116958    0.888337000000
 H   -0.355841757364   -4.885710116958   -0.888337000000
 C    0.135592242636   -2.948923116958    0.000000000000
 O   -1.031603757364   -2.442700116958    0.000000000000
 O    1.259663242636   -2.353505116958    0.000000000000
 K   -0.202965656192    4.643532253286    0.000000000000
