8

 C    0.189759150367   -4.783108259542    0.000000000000
 H    1.225259150367   -5.159196259542    0.000000000000
 H   -0.343440849633   -5.163811259542    0.888337000000
 H   -0.343440849633   -5.163811259542   -0.888337000000
 C    0.147993150367   -3.227024259542    0.000000000000
 O   -1.019202849633   -2.720801259542    0.000000000000
 O    1.272064150367   -2.631606259542    0.000000000000
 K   -0.221747712827    5.064736210593    0.000000000000
