8

 C    0.191530708614   -4.822836994196    0.000000000000
 H    1.227030708614   -5.198924994196    0.000000000000
 H   -0.341669291386   -5.203539994196    0.888337000000
 H   -0.341669291386   -5.203539994196   -0.888337000000
 C    0.149764708614   -3.266752994196    0.000000000000
 O   -1.017431291386   -2.760529994196    0.000000000000
 O    1.273835708614   -2.671334994196    0.000000000000
 K   -0.224430863775    5.124908204494    0.000000000000
