8

 C    0.193302266861   -4.862565728851    0.000000000000
 H    1.228802266861   -5.238653728851    0.000000000000
 H   -0.339897733139   -5.243268728851    0.888337000000
 H   -0.339897733139   -5.243268728851   -0.888337000000
 C    0.151536266861   -3.306481728851    0.000000000000
 O   -1.015659733139   -2.800258728851    0.000000000000
 O    1.275607266861   -2.711063728851    0.000000000000
 K   -0.227114014723    5.185080198395    0.000000000000
