8

 C    0.198616941603   -4.981751932816    0.000000000000
 H    1.234116941603   -5.357839932816    0.000000000000
 H   -0.334583058397   -5.362454932816    0.888337000000
 H   -0.334583058397   -5.362454932816   -0.888337000000
 C    0.156850941603   -3.425667932816    0.000000000000
 O   -1.010345058397   -2.919444932816    0.000000000000
 O    1.280921941603   -2.830249932816    0.000000000000
 K   -0.235163467567    5.365596180098    0.000000000000
