8

 C    0.200388499850   -5.021480667470    0.000000000000
 H    1.235888499850   -5.397568667470    0.000000000000
 H   -0.332811500150   -5.402183667470    0.888337000000
 H   -0.332811500150   -5.402183667470   -0.888337000000
 C    0.158622499850   -3.465396667470    0.000000000000
 O   -1.008573500150   -2.959173667470    0.000000000000
 O    1.282693499850   -2.869978667470    0.000000000000
 K   -0.237846618515    5.425768173999    0.000000000000
