8

 C    0.202160058097   -5.061209402125    0.000000000000
 H    1.237660058097   -5.437297402125    0.000000000000
 H   -0.331039941903   -5.441912402125    0.888337000000
 H   -0.331039941903   -5.441912402125   -0.888337000000
 C    0.160394058097   -3.505125402125    0.000000000000
 O   -1.006801941903   -2.998902402125    0.000000000000
 O    1.284465058097   -2.909707402125    0.000000000000
 K   -0.240529769463    5.485940167900    0.000000000000
