8

 C    0.205703174592   -5.140666871435    0.000000000000
 H    1.241203174592   -5.516754871435    0.000000000000
 H   -0.327496825408   -5.521369871435    0.888337000000
 H   -0.327496825408   -5.521369871435   -0.888337000000
 C    0.163937174592   -3.584582871435    0.000000000000
 O   -1.003258825408   -3.078359871435    0.000000000000
 O    1.288008174592   -2.989164871435    0.000000000000
 K   -0.245896071358    5.606284155702    0.000000000000
