8

 C    0.209246291086   -5.220124340744    0.000000000000
 H    1.244746291086   -5.596212340744    0.000000000000
 H   -0.323953708914   -5.600827340744    0.888337000000
 H   -0.323953708914   -5.600827340744   -0.888337000000
 C    0.167480291086   -3.664040340744    0.000000000000
 O   -0.999715708914   -3.157817340744    0.000000000000
 O    1.291551291086   -3.068622340744    0.000000000000
 K   -0.251262373254    5.726628143504    0.000000000000
