8

 C    0.211017849334   -5.259853075399    0.000000000000
 H    1.246517849334   -5.635941075399    0.000000000000
 H   -0.322182150666   -5.640556075399    0.888337000000
 H   -0.322182150666   -5.640556075399   -0.888337000000
 C    0.169251849334   -3.703769075399    0.000000000000
 O   -0.997944150666   -3.197546075399    0.000000000000
 O    1.293322849334   -3.108351075399    0.000000000000
 K   -0.253945524202    5.786800137405    0.000000000000
