8

 C    0.214560965828   -5.339310544709    0.000000000000
 H    1.250060965828   -5.715398544709    0.000000000000
 H   -0.318639034172   -5.720013544709    0.888337000000
 H   -0.318639034172   -5.720013544709   -0.888337000000
 C    0.172794965828   -3.783226544709    0.000000000000
 O   -0.994401034172   -3.277003544709    0.000000000000
 O    1.296865965828   -3.187808544709    0.000000000000
 K   -0.259311826098    5.907144125207    0.000000000000
