14

 C    0.953508421083    1.923810519565    0.000000457876
 O    0.773188421083    0.450400519565    0.000000457876
 H    1.670888421083    0.075940519565    0.000000457876
 H   -0.053501578917    2.357080519565    0.000000457876
 H    1.499798421083    2.233270519565    0.898710457876
 H    1.499798421083    2.233270519565   -0.898709542124
NA   -0.595611578917   -0.346959480435   -1.825429542124
NA   -0.595611578917   -0.346959480435    1.825430457876
 O    0.081921216808    0.047722419475   -0.000001048753
 C   -0.098398021711   -1.425684629585   -0.000001048752
 H   -0.815780578911    0.422179913535   -0.000003263050
 H    0.908617552315   -1.858959999949    0.000001438978
 H   -0.644683224923   -1.735140820272   -0.898712922935
 H   -0.644687443156   -1.735140304033    0.898708439107
