14

 C    1.028959238887    1.967762253099    0.000000622323
 O    0.848639238887    0.494352253099    0.000000622323
 H    1.746339238887    0.119892253099    0.000000622323
 H    0.021949238887    2.401032253099    0.000000622323
 H    1.575249238887    2.277222253099    0.898710622323
 H    1.575249238887    2.277222253099   -0.898709377677
NA   -0.520160761113   -0.303007746901   -1.825429377677
NA   -0.520160761113   -0.303007746901    1.825430622323
 O   -0.101853166991   -0.059330134524   -0.000001449293
 C   -0.282172405510   -1.532737183584   -0.000001449292
 H   -0.999554962710    0.315127359536   -0.000003663590
 H    0.724843168515   -1.966012553948    0.000001038439
 H   -0.828457608722   -1.842193374271   -0.898713323474
 H   -0.828461826955   -1.842192858032    0.898708038568
