14

 C    1.104410056691    2.011713986634    0.000000786769
 O    0.924090056691    0.538303986634    0.000000786769
 H    1.821790056691    0.163843986634    0.000000786769
 H    0.097400056691    2.444983986634    0.000000786769
 H    1.650700056691    2.321173986634    0.898710786769
 H    1.650700056691    2.321173986634   -0.898709213231
NA   -0.444709943309   -0.259056013366   -1.825429213231
NA   -0.444709943309   -0.259056013366    1.825430786769
 O   -0.285627550790   -0.166382688523   -0.000001849832
 C   -0.465946789309   -1.639789737583   -0.000001849831
 H   -1.183329346510    0.208074805537   -0.000004064129
 H    0.541068784716   -2.073065107947    0.000000637899
 H   -1.012231992522   -1.949245928270   -0.898713724014
 H   -1.012236210755   -1.949245412031    0.898707638028
