14

 C    1.205011147096    2.070316298013    0.000001006031
 O    1.024691147096    0.596906298013    0.000001006031
 H    1.922391147096    0.222446298013    0.000001006031
 H    0.198001147096    2.503586298013    0.000001006031
 H    1.751301147096    2.379776298013    0.898711006031
 H    1.751301147096    2.379776298013   -0.898708993969
NA   -0.344108852904   -0.200453701987   -1.825428993969
NA   -0.344108852904   -0.200453701987    1.825431006031
 O   -0.530660062523   -0.309119427188   -0.000002383885
 C   -0.710979301042   -1.782526476249   -0.000002383884
 H   -1.428361858242    0.065338066871   -0.000004598182
 H    0.296036272984   -2.215801846613    0.000000103846
 H   -1.257264504254   -2.091982666936   -0.898714258067
 H   -1.257268722487   -2.091982150697    0.898707103975
