14

 C    3.267333500399    3.271663681290    0.000005500900
 O    3.087013500399    1.798253681290    0.000005500900
 H    3.984713500399    1.423793681290    0.000005500900
 H    2.260323500399    3.704933681290    0.000005500900
 H    3.813623500399    3.581123681290    0.898715500900
 H    3.813623500399    3.581123681290   -0.898704499100
NA    1.718213500399    1.000893681290   -1.825424499100
NA    1.718213500399    1.000893681290    1.825435500900
 O   -5.553826553036   -3.235222569831   -0.000013331968
 C   -5.734145791555   -4.708629618891   -0.000013331967
 H   -6.451528348755   -2.860765075771   -0.000015546265
 H   -4.727130217529   -5.141904989255   -0.000010844236
 H   -6.280430994767   -5.018085809578   -0.898725206149
 H   -6.280435213000   -5.018085293339    0.898696155893
