14

 C    3.317634045601    3.300964836980    0.000005610531
 O    3.137314045601    1.827554836980    0.000005610531
 H    4.035014045601    1.453094836980    0.000005610531
 H    2.310624045601    3.734234836980    0.000005610531
 H    3.863924045601    3.610424836980    0.898715610531
 H    3.863924045601    3.610424836980   -0.898704389469
NA    1.768514045601    1.030194836980   -1.825424389469
NA    1.768514045601    1.030194836980    1.825435610531
 O   -5.676342808902   -3.306590939164   -0.000013598994
 C   -5.856662047421   -4.779997988224   -0.000013598993
 H   -6.574044604621   -2.932133445104   -0.000015813291
 H   -4.849646473396   -5.213273358588   -0.000011111263
 H   -6.402947250634   -5.089454178911   -0.898725473176
 H   -6.402951468867   -5.089453662672    0.898695888866
