14

 C    3.367934590804    3.330265992670    0.000005720162
 O    3.187614590804    1.856855992670    0.000005720162
 H    4.085314590804    1.482395992670    0.000005720162
 H    2.360924590804    3.763535992670    0.000005720162
 H    3.914224590804    3.639725992670    0.898715720162
 H    3.914224590804    3.639725992670   -0.898704279838
NA    1.818814590804    1.059495992670   -1.825424279838
NA    1.818814590804    1.059495992670    1.825435720162
 O   -5.798859064768   -3.377959308497   -0.000013866021
 C   -5.979178303287   -4.851366357557   -0.000013866020
 H   -6.696560860488   -3.003501814437   -0.000016080318
 H   -4.972162729262   -5.284641727921   -0.000011378289
 H   -6.525463506500   -5.160822548244   -0.898725740202
 H   -6.525467724733   -5.160822032005    0.898695621840
