14

 C    3.493685953810    3.403518881894    0.000005994240
 O    3.313365953810    1.930108881894    0.000005994240
 H    4.211065953810    1.555648881894    0.000005994240
 H    2.486675953810    3.836788881894    0.000005994240
 H    4.039975953810    3.712978881894    0.898715994240
 H    4.039975953810    3.712978881894   -0.898704005760
NA    1.944565953810    1.132748881894   -1.825424005760
NA    1.944565953810    1.132748881894    1.825435994240
 O   -6.105149704434   -3.556380231829   -0.000014533587
 C   -6.285468942953   -5.029787280889   -0.000014533586
 H   -7.002851500153   -3.181922737769   -0.000016747884
 H   -5.278453368927   -5.463062651253   -0.000012045855
 H   -6.831754146165   -5.339243471576   -0.898726407768
 H   -6.831758364398   -5.339242955337    0.898694954274
