14

 C    1.305612237501    2.128918609393    0.000001225293
 O    1.125292237501    0.655508609393    0.000001225293
 H    2.022992237501    0.281048609393    0.000001225293
 H    0.298602237501    2.562188609393    0.000001225293
 H    1.851902237501    2.438378609393    0.898711225293
 H    1.851902237501    2.438378609393   -0.898708774707
NA   -0.243507762499   -0.141851390607   -1.825428774707
NA   -0.243507762499   -0.141851390607    1.825431225293
 O   -0.775692574255   -0.451856165854   -0.000002917938
 C   -0.956011812774   -1.925263214914   -0.000002917937
 H   -1.673394369974   -0.077398671794   -0.000005132235
 H    0.051003761251   -2.358538585278   -0.000000430206
 H   -1.502297015986   -2.234719405601   -0.898714792119
 H   -1.502301234219   -2.234718889362    0.898706569923
