14

 C    1.355912782703    2.158219765082    0.000001334924
 O    1.175592782703    0.684809765082    0.000001334924
 H    2.073292782703    0.310349765082    0.000001334924
 H    0.348902782703    2.591489765082    0.000001334924
 H    1.902202782703    2.467679765082    0.898711334924
 H    1.902202782703    2.467679765082   -0.898708665076
NA   -0.193207217297   -0.112550234918   -1.825428665076
NA   -0.193207217297   -0.112550234918    1.825431334924
 O   -0.898208830121   -0.523224535187   -0.000003184964
 C   -1.078528068640   -1.996631584247   -0.000003184963
 H   -1.795910625840   -0.148767041127   -0.000005399261
 H   -0.071512494615   -2.429906954611   -0.000000697233
 H   -1.624813271853   -2.306087774934   -0.898715059146
 H   -1.624817490086   -2.306087258695    0.898706302896
