14

 C    1.431363600507    2.202171498617    0.000001499371
 O    1.251043600507    0.728761498617    0.000001499371
 H    2.148743600507    0.354301498617    0.000001499371
 H    0.424353600507    2.635441498617    0.000001499371
 H    1.977653600507    2.511631498617    0.898711499371
 H    1.977653600507    2.511631498617   -0.898708500629
NA   -0.117756399493   -0.068598501383   -1.825428500629
NA   -0.117756399493   -0.068598501383    1.825431499371
 O   -1.081983213920   -0.630277089186   -0.000003585504
 C   -1.262302452439   -2.103684138246   -0.000003585503
 H   -1.979685009640   -0.255819595126   -0.000005799801
 H   -0.255286878414   -2.536959508610   -0.000001097772
 H   -1.808587655652   -2.413140328933   -0.898715459685
 H   -1.808591873885   -2.413139812694    0.898705902357
