14

 C    1.607415508716    2.304725543531    0.000001883079
 O    1.427095508716    0.831315543531    0.000001883079
 H    2.324795508716    0.456855543531    0.000001883079
 H    0.600405508716    2.737995543531    0.000001883079
 H    2.153705508716    2.614185543531    0.898711883079
 H    2.153705508716    2.614185543531   -0.898708116921
NA    0.058295508716    0.033955543531   -1.825428116921
NA    0.058295508716    0.033955543531    1.825431883079
 O   -1.510790109452   -0.880066381850   -0.000004520096
 C   -1.691109347971   -2.353473430911   -0.000004520095
 H   -2.408491905171   -0.505608887791   -0.000006734393
 H   -0.684093773946   -2.786748801274   -0.000002032365
 H   -2.237394551183   -2.662929621598   -0.898716394278
 H   -2.237398769416   -2.662929105359    0.898704967764
