14

 C    1.657716053918    2.334026699221    0.000001992710
 O    1.477396053918    0.860616699221    0.000001992710
 H    2.375096053918    0.486156699221    0.000001992710
 H    0.650706053918    2.767296699221    0.000001992710
 H    2.204006053918    2.643486699221    0.898711992710
 H    2.204006053918    2.643486699221   -0.898708007290
NA    0.108596053918    0.063256699221   -1.825428007290
NA    0.108596053918    0.063256699221    1.825431992710
 O   -1.633306365318   -0.951434751183   -0.000004787123
 C   -1.813625603837   -2.424841800243   -0.000004787122
 H   -2.531008161038   -0.576977257123   -0.000007001420
 H   -0.806610029812   -2.858117170607   -0.000002299391
 H   -2.359910807050   -2.734297990930   -0.898716661304
 H   -2.359915025283   -2.734297474691    0.898704700738
