14

 C    1.682866326520    2.348677277065    0.000002047525
 O    1.502546326520    0.875267277065    0.000002047525
 H    2.400246326520    0.500807277065    0.000002047525
 H    0.675856326520    2.781947277065    0.000002047525
 H    2.229156326520    2.658137277065    0.898712047525
 H    2.229156326520    2.658137277065   -0.898707952475
NA    0.133746326520    0.077907277065   -1.825427952475
NA    0.133746326520    0.077907277065    1.825432047525
 O   -1.694564493251   -0.987118935850   -0.000004920636
 C   -1.874883731770   -2.460525984910   -0.000004920635
 H   -2.592266288971   -0.612661441790   -0.000007134933
 H   -0.867868157745   -2.893801355274   -0.000002432904
 H   -2.421168934983   -2.769982175597   -0.898716794818
 H   -2.421173153216   -2.769981659358    0.898704567225
