14

 C    1.708016599121    2.363327854910    0.000002102341
 O    1.527696599121    0.889917854910    0.000002102341
 H    2.425396599121    0.515457854910    0.000002102341
 H    0.701006599121    2.796597854910    0.000002102341
 H    2.254306599121    2.672787854910    0.898712102341
 H    2.254306599121    2.672787854910   -0.898707897659
NA    0.158896599121    0.092557854910   -1.825427897659
NA    0.158896599121    0.092557854910    1.825432102341
 O   -1.755822621184   -1.022803120516   -0.000005054149
 C   -1.936141859703   -2.496210169576   -0.000005054148
 H   -2.653524416904   -0.648345626456   -0.000007268446
 H   -0.929126285678   -2.929485539940   -0.000002566418
 H   -2.482427062916   -2.805666360263   -0.898716928331
 H   -2.482431281149   -2.805665844024    0.898704433711
