14

 C    1.833767962127    2.436580744134    0.000002376418
 O    1.653447962127    0.963170744134    0.000002376418
 H    2.551147962127    0.588710744134    0.000002376418
 H    0.826757962127    2.869850744134    0.000002376418
 H    2.380057962127    2.746040744134    0.898712376418
 H    2.380057962127    2.746040744134   -0.898707623582
NA    0.284647962127    0.165810744134   -1.825427623582
NA    0.284647962127    0.165810744134    1.825432376418
 O   -2.062113260850   -1.201224043848   -0.000005721715
 C   -2.242432499369   -2.674631092908   -0.000005721714
 H   -2.959815056569   -0.826766549788   -0.000007936012
 H   -1.235416925343   -3.107906463272   -0.000003233984
 H   -2.788717702581   -2.984087283595   -0.898717595897
 H   -2.788721920814   -2.984086767356    0.898703766145
