14

 C    1.909218779931    2.480532477669    0.000002540865
 O    1.728898779931    1.007122477669    0.000002540865
 H    2.626598779931    0.632662477669    0.000002540865
 H    0.902208779931    2.913802477669    0.000002540865
 H    2.455508779931    2.789992477669    0.898712540865
 H    2.455508779931    2.789992477669   -0.898707459135
NA    0.360098779931    0.209762477669   -1.825427459135
NA    0.360098779931    0.209762477669    1.825432540865
 O   -2.245887644649   -1.308276597847   -0.000006122255
 C   -2.426206883168   -2.781683646907   -0.000006122254
 H   -3.143589440368   -0.933819103787   -0.000008336552
 H   -1.419191309143   -3.214959017271   -0.000003634523
 H   -2.972492086381   -3.091139837594   -0.898717996436
 H   -2.972496304614   -3.091139321355    0.898703365606
