14

 C    2.085270688140    2.583086522583    0.000002924573
 O    1.904950688140    1.109676522583    0.000002924573
 H    2.802650688140    0.735216522583    0.000002924573
 H    1.078260688140    3.016356522583    0.000002924573
 H    2.631560688140    2.892546522583    0.898712924573
 H    2.631560688140    2.892546522583   -0.898707075427
NA    0.536150688140    0.312316522583   -1.825427075427
NA    0.536150688140    0.312316522583    1.825432924573
 O   -2.674694540181   -1.558065890512   -0.000007056847
 C   -2.855013778700   -3.031472939572   -0.000007056846
 H   -3.572396335900   -1.183608396452   -0.000009271144
 H   -1.847998204674   -3.464748309936   -0.000004569116
 H   -3.401298981912   -3.340929130259   -0.898718931029
 H   -3.401303200145   -3.340928614020    0.898702431013
