14

 C    2.110420960741    2.597737100428    0.000002979388
 O    1.930100960741    1.124327100428    0.000002979388
 H    2.827800960741    0.749867100428    0.000002979388
 H    1.103410960741    3.031007100428    0.000002979388
 H    2.656710960741    2.907197100428    0.898712979388
 H    2.656710960741    2.907197100428   -0.898707020612
NA    0.561300960741    0.326967100428   -1.825427020612
NA    0.561300960741    0.326967100428    1.825432979388
 O   -2.735952668114   -1.593750075178   -0.000007190360
 C   -2.916271906633   -3.067157124238   -0.000007190360
 H   -3.633654463833   -1.219292581118   -0.000009404658
 H   -1.909256332607   -3.500432494602   -0.000004702629
 H   -3.462557109845   -3.376613314925   -0.898719064542
 H   -3.462561328078   -3.376612798686    0.898702297500
