14

 C    2.261322596348    2.685640567497    0.000003308281
 O    2.081002596348    1.212230567497    0.000003308281
 H    2.978702596348    0.837770567497    0.000003308281
 H    1.254312596348    3.118910567497    0.000003308281
 H    2.807612596348    2.995100567497    0.898713308281
 H    2.807612596348    2.995100567497   -0.898706691719
NA    0.712202596348    0.414870567497   -1.825426691719
NA    0.712202596348    0.414870567497    1.825433308281
 O   -3.103501435712   -1.807855183176   -0.000007991440
 C   -3.283820674231   -3.281262232236   -0.000007991439
 H   -4.001203231432   -1.433397689116   -0.000010205737
 H   -2.276805100206   -3.714537602600   -0.000005503708
 H   -3.830105877444   -3.590718422923   -0.898719865621
 H   -3.830110095677   -3.590717906684    0.898701496421
