14

 C    2.336773414152    2.729592301031    0.000003472728
 O    2.156453414152    1.256182301031    0.000003472728
 H    3.054153414152    0.881722301031    0.000003472728
 H    1.329763414152    3.162862301031    0.000003472728
 H    2.883063414152    3.039052301031    0.898713472728
 H    2.883063414152    3.039052301031   -0.898706527272
NA    0.787653414152    0.458822301031   -1.825426527272
NA    0.787653414152    0.458822301031    1.825433472728
 O   -3.287275819512   -1.914907737175   -0.000008391979
 C   -3.467595058031   -3.388314786235   -0.000008391978
 H   -4.184977615231   -1.540450243116   -0.000010606276
 H   -2.460579484005   -3.821590156599   -0.000005904248
 H   -4.013880261243   -3.697770976922   -0.898720266161
 H   -4.013884479476   -3.697770460683    0.898701095881
