14

 C    2.387073959355    2.758893456721    0.000003582359
 O    2.206753959355    1.285483456721    0.000003582359
 H    3.104453959355    0.911023456721    0.000003582359
 H    1.380063959355    3.192163456721    0.000003582359
 H    2.933363959355    3.068353456721    0.898713582359
 H    2.933363959355    3.068353456721   -0.898706417641
NA    0.837953959355    0.488123456721   -1.825426417641
NA    0.837953959355    0.488123456721    1.825433582359
 O   -3.409792075378   -1.986276106508   -0.000008659006
 C   -3.590111313897   -3.459683155568   -0.000008659005
 H   -4.307493871097   -1.611818612448   -0.000010873303
 H   -2.583095739871   -3.892958525932   -0.000006171274
 H   -4.136396517109   -3.769139346255   -0.898720533187
 H   -4.136400735342   -3.769138830016    0.898700828855
