14

 C    2.412224231956    2.773544034566    0.000003637174
 O    2.231904231956    1.300134034566    0.000003637174
 H    3.129604231956    0.925674034566    0.000003637174
 H    1.405214231956    3.206814034566    0.000003637174
 H    2.958514231956    3.083004034566    0.898713637174
 H    2.958514231956    3.083004034566   -0.898706362826
NA    0.863104231956    0.502774034566   -1.825426362826
NA    0.863104231956    0.502774034566    1.825433637174
 O   -3.471050203311   -2.021960291174   -0.000008792519
 C   -3.651369441830   -3.495367340235   -0.000008792518
 H   -4.368751999030   -1.647502797115   -0.000011006816
 H   -2.644353867804   -3.928642710598   -0.000006304787
 H   -4.197654645042   -3.804823530922   -0.898720666700
 H   -4.197658863275   -3.804823014683    0.898700695342
