14

 C    2.437374504557    2.788194612411    0.000003691990
 O    2.257054504557    1.314784612411    0.000003691990
 H    3.154754504557    0.940324612411    0.000003691990
 H    1.430364504557    3.221464612411    0.000003691990
 H    2.983664504557    3.097654612411    0.898713691990
 H    2.983664504557    3.097654612411   -0.898706308010
NA    0.888254504557    0.517424612411   -1.825426308010
NA    0.888254504557    0.517424612411    1.825433691990
 O   -3.532308331244   -2.057644475841   -0.000008926032
 C   -3.712627569763   -3.531051524901   -0.000008926031
 H   -4.430010126963   -1.683186981781   -0.000011140329
 H   -2.705611995738   -3.964326895265   -0.000006438301
 H   -4.258912772975   -3.840507715588   -0.898720800214
 H   -4.258916991208   -3.840507199349    0.898700561828
