14

 C    2.487675049760    2.817495768100    0.000003801621
 O    2.307355049760    1.344085768100    0.000003801621
 H    3.205055049760    0.969625768100    0.000003801621
 H    1.480665049760    3.250765768100    0.000003801621
 H    3.033965049760    3.126955768100    0.898713801621
 H    3.033965049760    3.126955768100   -0.898706198379
NA    0.938555049760    0.546725768100   -1.825426198379
NA    0.938555049760    0.546725768100    1.825433801621
 O   -3.654824587110   -2.129012845174   -0.000009193059
 C   -3.835143825629   -3.602419894234   -0.000009193058
 H   -4.552526382829   -1.754555351114   -0.000011407356
 H   -2.828128251604   -4.035695264598   -0.000006705327
 H   -4.381429028842   -3.911876084921   -0.898721067240
 H   -4.381433247075   -3.911875568682    0.898700294802
