14

 C    2.512825322361    2.832146345945    0.000003856436
 O    2.332505322361    1.358736345945    0.000003856436
 H    3.230205322361    0.984276345945    0.000003856436
 H    1.505815322361    3.265416345945    0.000003856436
 H    3.059115322361    3.141606345945    0.898713856436
 H    3.059115322361    3.141606345945   -0.898706143564
NA    0.963705322361    0.561376345945   -1.825426143564
NA    0.963705322361    0.561376345945    1.825433856436
 O   -3.716082715043   -2.164697029840   -0.000009326572
 C   -3.896401953562   -3.638104078900   -0.000009326571
 H   -4.613784510763   -1.790239535780   -0.000011540869
 H   -2.889386379537   -4.071379449264   -0.000006838840
 H   -4.442687156775   -3.947560269587   -0.898721200753
 H   -4.442691375008   -3.947559753348    0.898700161289
