14

 C    2.537975594962    2.846796923790    0.000003911252
 O    2.357655594962    1.373386923790    0.000003911252
 H    3.255355594962    0.998926923790    0.000003911252
 H    1.530965594962    3.280066923790    0.000003911252
 H    3.084265594962    3.156256923790    0.898713911252
 H    3.084265594962    3.156256923790   -0.898706088748
NA    0.988855594962    0.576026923790   -1.825426088748
NA    0.988855594962    0.576026923790    1.825433911252
 O   -3.777340842976   -2.200381214506   -0.000009460085
 C   -3.957660081495   -3.673788263566   -0.000009460084
 H   -4.675042638696   -1.825923720447   -0.000011674382
 H   -2.950644507470   -4.107063633930   -0.000006972353
 H   -4.503945284708   -3.983244454253   -0.898721334267
 H   -4.503949502941   -3.983243938014    0.898700027776
