14

 C    2.563125867564    2.861447501635    0.000003966067
 O    2.382805867564    1.388037501635    0.000003966067
 H    3.280505867564    1.013577501635    0.000003966067
 H    1.556115867564    3.294717501635    0.000003966067
 H    3.109415867564    3.170907501635    0.898713966067
 H    3.109415867564    3.170907501635   -0.898706033933
NA    1.014005867564    0.590677501635   -1.825426033933
NA    1.014005867564    0.590677501635    1.825433966067
 O   -3.838598970909   -2.236065399173   -0.000009593598
 C   -4.018918209428   -3.709472448233   -0.000009593597
 H   -4.736300766629   -1.861607905113   -0.000011807895
 H   -3.011902635403   -4.142747818597   -0.000007105867
 H   -4.565203412641   -4.018928638920   -0.898721467780
 H   -4.565207630874   -4.018928122681    0.898699894262
