14

 C    2.613426412766    2.890748657324    0.000004075698
 O    2.433106412766    1.417338657324    0.000004075698
 H    3.330806412766    1.042878657324    0.000004075698
 H    1.606416412766    3.324018657324    0.000004075698
 H    3.159716412766    3.200208657324    0.898714075698
 H    3.159716412766    3.200208657324   -0.898705924302
NA    1.064306412766    0.619978657324   -1.825425924302
NA    1.064306412766    0.619978657324    1.825434075698
 O   -3.961115226776   -2.307433768505   -0.000009860625
 C   -4.141434465295   -3.780840817566   -0.000009860624
 H   -4.858817022495   -1.932976274446   -0.000012074922
 H   -3.134418891269   -4.214116187929   -0.000007372893
 H   -4.687719668507   -4.090297008253   -0.898721734806
 H   -4.687723886740   -4.090296492014    0.898699627236
