14

 C    2.638576685367    2.905399235169    0.000004130513
 O    2.458256685367    1.431989235169    0.000004130513
 H    3.355956685367    1.057529235169    0.000004130513
 H    1.631566685367    3.338669235169    0.000004130513
 H    3.184866685367    3.214859235169    0.898714130513
 H    3.184866685367    3.214859235169   -0.898705869487
NA    1.089456685367    0.634629235169   -1.825425869487
NA    1.089456685367    0.634629235169    1.825434130513
 O   -4.022373354709   -2.343117953172   -0.000009994138
 C   -4.202692593228   -3.816525002232   -0.000009994137
 H   -4.920075150428   -1.968660459112   -0.000012208435
 H   -3.195677019202   -4.249800372596   -0.000007506406
 H   -4.748977796440   -4.125981192919   -0.898721868319
 H   -4.748982014673   -4.125980676680    0.898699493723
