14

 C    2.789478320975    2.993302702238    0.000004459406
 O    2.609158320975    1.519892702238    0.000004459406
 H    3.506858320975    1.145432702238    0.000004459406
 H    1.782468320975    3.426572702238    0.000004459406
 H    3.335768320975    3.302762702238    0.898714459406
 H    3.335768320975    3.302762702238   -0.898705540594
NA    1.240358320975    0.722532702238   -1.825425540594
NA    1.240358320975    0.722532702238    1.825434459406
 O   -4.389922122307   -2.557223061170   -0.000010795217
 C   -4.570241360826   -4.030630110230   -0.000010795216
 H   -5.287623918027   -2.182765567110   -0.000013009514
 H   -3.563225786801   -4.463905480594   -0.000008307486
 H   -5.116526564039   -4.340086300917   -0.898722669399
 H   -5.116530782272   -4.340085784678    0.898698692643
