14

 C    2.839778866177    3.022603857928    0.000004569037
 O    2.659458866177    1.549193857928    0.000004569037
 H    3.557158866177    1.174733857928    0.000004569037
 H    1.832768866177    3.455873857928    0.000004569037
 H    3.386068866177    3.332063857928    0.898714569037
 H    3.386068866177    3.332063857928   -0.898705430963
NA    1.290658866177    0.751833857928   -1.825425430963
NA    1.290658866177    0.751833857928    1.825434569037
 O   -4.512438378173   -2.628591430503   -0.000011062243
 C   -4.692757616692   -4.101998479563   -0.000011062242
 H   -5.410140173893   -2.254133936443   -0.000013276541
 H   -3.685742042667   -4.535273849927   -0.000008574512
 H   -5.239042819905   -4.411454670250   -0.898722936425
 H   -5.239047038138   -4.411454154011    0.898698425617
