14

 C    2.864929138779    3.037254435773    0.000004623853
 O    2.684609138779    1.563844435773    0.000004623853
 H    3.582309138779    1.189384435773    0.000004623853
 H    1.857919138779    3.470524435773    0.000004623853
 H    3.411219138779    3.346714435773    0.898714623853
 H    3.411219138779    3.346714435773   -0.898705376147
NA    1.315809138779    0.766484435773   -1.825425376147
NA    1.315809138779    0.766484435773    1.825434623853
 O   -4.573696506107   -2.664275615169   -0.000011195757
 C   -4.754015744626   -4.137682664229   -0.000011195756
 H   -5.471398301826   -2.289818121109   -0.000013410054
 H   -3.747000170600   -4.570958034593   -0.000008708025
 H   -5.300300947838   -4.447138854916   -0.898723069938
 H   -5.300305166071   -4.447138338677    0.898698292104
