14

 C    2.915229683981    3.066555591463    0.000004733484
 O    2.734909683981    1.593145591463    0.000004733484
 H    3.632609683981    1.218685591463    0.000004733484
 H    1.908219683981    3.499825591463    0.000004733484
 H    3.461519683981    3.376015591463    0.898714733484
 H    3.461519683981    3.376015591463   -0.898705266516
NA    1.366109683981    0.795785591463   -1.825425266516
NA    1.366109683981    0.795785591463    1.825434733484
 O   -4.696212761973   -2.735643984502   -0.000011462783
 C   -4.876532000492   -4.209051033562   -0.000011462782
 H   -5.593914557692   -2.361186490442   -0.000013677080
 H   -3.869516426466   -4.642326403926   -0.000008975052
 H   -5.422817203704   -4.518507224249   -0.898723336965
 H   -5.422821421937   -4.518506708010    0.898698025077
