14

 C    2.940379956582    3.081206169307    0.000004788299
 O    2.760059956582    1.607796169307    0.000004788299
 H    3.657759956582    1.233336169307    0.000004788299
 H    1.933369956582    3.514476169307    0.000004788299
 H    3.486669956582    3.390666169307    0.898714788299
 H    3.486669956582    3.390666169307   -0.898705211701
NA    1.391259956582    0.810436169307   -1.825425211701
NA    1.391259956582    0.810436169307    1.825434788299
 O   -4.757470889906   -2.771328169168   -0.000011596296
 C   -4.937790128425   -4.244735218228   -0.000011596295
 H   -5.655172685625   -2.396870675109   -0.000013810593
 H   -3.930774554399   -4.678010588592   -0.000009108565
 H   -5.484075331637   -4.554191408915   -0.898723470478
 H   -5.484079549870   -4.554190892676    0.898697891564
