14

 C    3.040981046987    3.139808480687    0.000005007561
 O    2.860661046987    1.666398480687    0.000005007561
 H    3.758361046987    1.291938480687    0.000005007561
 H    2.033971046987    3.573078480687    0.000005007561
 H    3.587271046987    3.449268480687    0.898715007561
 H    3.587271046987    3.449268480687   -0.898704992439
NA    1.491861046987    0.869038480687   -1.825424992439
NA    1.491861046987    0.869038480687    1.825435007561
 O   -5.002503401638   -2.914064907834   -0.000012130349
 C   -5.182822640157   -4.387471956894   -0.000012130348
 H   -5.900205197357   -2.539607413774   -0.000014344646
 H   -4.175807066132   -4.820747327258   -0.000009642618
 H   -5.729107843370   -4.696928147581   -0.898724004531
 H   -5.729112061603   -4.696927631342    0.898697357511
