14

 C    3.066131319589    3.154459058532    0.000005062377
 O    2.885811319589    1.681049058532    0.000005062377
 H    3.783511319589    1.306589058532    0.000005062377
 H    2.059121319589    3.587729058532    0.000005062377
 H    3.612421319589    3.463919058532    0.898715062377
 H    3.612421319589    3.463919058532   -0.898704937623
NA    1.517011319589    0.883689058532   -1.825424937623
NA    1.517011319589    0.883689058532    1.825435062377
 O   -5.063761529571   -2.949749092500   -0.000012263862
 C   -5.244080768090   -4.423156141560   -0.000012263861
 H   -5.961463325290   -2.575291598440   -0.000014478159
 H   -4.237065194065   -4.856431511924   -0.000009776131
 H   -5.790365971303   -4.732612332247   -0.898724138044
 H   -5.790370189536   -4.732611816008    0.898697223998
