14

 C    3.141582137392    3.198410792066    0.000005226823
 O    2.961262137392    1.725000792066    0.000005226823
 H    3.858962137392    1.350540792066    0.000005226823
 H    2.134572137392    3.631680792066    0.000005226823
 H    3.687872137392    3.507870792066    0.898715226823
 H    3.687872137392    3.507870792066   -0.898704773177
NA    1.592462137392    0.927640792066   -1.825424773177
NA    1.592462137392    0.927640792066    1.825435226823
 O   -5.247535913371   -3.056801646499   -0.000012664402
 C   -5.427855151889   -4.530208695559   -0.000012664401
 H   -6.145237709090   -2.682344152440   -0.000014878699
 H   -4.420839577864   -4.963484065923   -0.000010176670
 H   -5.974140355102   -4.839664886246   -0.898724538583
 H   -5.974144573335   -4.839664370007    0.898696823459
