14

 C    3.191882682595    3.227711947756    0.000005336454
 O    3.011562682595    1.754301947756    0.000005336454
 H    3.909262682595    1.379841947756    0.000005336454
 H    2.184872682595    3.660981947756    0.000005336454
 H    3.738172682595    3.537171947756    0.898715336454
 H    3.738172682595    3.537171947756   -0.898704663546
NA    1.642762682595    0.956941947756   -1.825424663546
NA    1.642762682595    0.956941947756    1.825435336454
 O   -5.370052169237   -3.128170015832   -0.000012931428
 C   -5.550371407756   -4.601577064892   -0.000012931427
 H   -6.267753964956   -2.753712521772   -0.000015145725
 H   -4.543355833730   -5.034852435256   -0.000010443697
 H   -6.096656610968   -4.911033255579   -0.898724805610
 H   -6.096660829201   -4.911032739340    0.898696556432
