14

 C    3.242183227797    3.257013103445    0.000005446085
 O    3.061863227797    1.783603103445    0.000005446085
 H    3.959563227797    1.409143103445    0.000005446085
 H    2.235173227797    3.690283103445    0.000005446085
 H    3.788473227797    3.566473103445    0.898715446085
 H    3.788473227797    3.566473103445   -0.898704553915
NA    1.693063227797    0.986243103445   -1.825424553915
NA    1.693063227797    0.986243103445    1.825435446085
 O   -5.492568425103   -3.199538385165   -0.000013198455
 C   -5.672887663622   -4.672945434225   -0.000013198454
 H   -6.390270220822   -2.825080891105   -0.000015412752
 H   -4.665872089596   -5.106220804589   -0.000010710723
 H   -6.219172866834   -4.982401624912   -0.898725072636
 H   -6.219177085067   -4.982401108673    0.898696289406
