9

 C   -0.904308650952   -2.466256093343    0.000000000000
 H   -1.883235650952   -1.974468093343    0.000000000000
 H   -0.797162650952   -3.106065093343    0.888272000000
 H   -0.797162650952   -3.106065093343   -0.888272000000
 C    0.180318349048   -1.420672093343    0.000000000000
 O    0.019214349048   -0.211121093343    0.000000000000
 O    1.422604349048   -1.997680093343    0.000000000000
 H    2.057140349048   -1.259117093343    0.000000000000
RB   -0.152421094282    1.077498817489    0.000000000000
