9

 C   -0.850163119691   -2.872774748885    0.000000000000
 H   -1.829090119691   -2.380986748885    0.000000000000
 H   -0.743017119691   -3.512583748885    0.888272000000
 H   -0.743017119691   -3.512583748885   -0.888272000000
 C    0.234463880309   -1.827190748885    0.000000000000
 O    0.073359880309   -0.617639748885    0.000000000000
 O    1.476749880309   -2.404198748885    0.000000000000
 H    2.111285880309   -1.665635748885    0.000000000000
RB   -0.190694647890    1.364852421626    0.000000000000
