9

 C   -0.834692967902   -2.988922936183    0.000000000000
 H   -1.813619967902   -2.497134936183    0.000000000000
 H   -0.727546967902   -3.628731936183    0.888272000000
 H   -0.727546967902   -3.628731936183   -0.888272000000
 C    0.249934032098   -1.943338936183    0.000000000000
 O    0.088830032098   -0.733787936183    0.000000000000
 O    1.492220032098   -2.520346936183    0.000000000000
 H    2.126756032098   -1.781783936183    0.000000000000
RB   -0.201629948921    1.446953451379    0.000000000000
