9

 C   -0.826957892008   -3.046997029832    0.000000000000
 H   -1.805884892008   -2.555209029832    0.000000000000
 H   -0.719811892008   -3.686806029832    0.888272000000
 H   -0.719811892008   -3.686806029832   -0.888272000000
 C    0.257669107992   -2.001413029832    0.000000000000
 O    0.096565107992   -0.791862029832    0.000000000000
 O    1.499955107992   -2.578421029832    0.000000000000
 H    2.134491107992   -1.839858029832    0.000000000000
RB   -0.207097599437    1.488003966255    0.000000000000
