9

 C   -0.811487740219   -3.163145217130    0.000000000000
 H   -1.790414740219   -2.671357217130    0.000000000000
 H   -0.704341740219   -3.802954217130    0.888272000000
 H   -0.704341740219   -3.802954217130   -0.888272000000
 C    0.273139259781   -2.117561217130    0.000000000000
 O    0.112035259781   -0.908010217130    0.000000000000
 O    1.515425259781   -2.694569217130    0.000000000000
 H    2.149961259781   -1.956006217130    0.000000000000
RB   -0.218032900468    1.570104996009    0.000000000000
