9

 C   -0.765077284852   -3.511589779024    0.000000000000
 H   -1.744004284852   -3.019801779024    0.000000000000
 H   -0.657931284852   -4.151398779024    0.888272000000
 H   -0.657931284852   -4.151398779024   -0.888272000000
 C    0.319549715148   -2.466005779024    0.000000000000
 O    0.158445715148   -1.256454779024    0.000000000000
 O    1.561835715148   -3.043013779024    0.000000000000
 H    2.196371715148   -2.304450779024    0.000000000000
RB   -0.250838803561    1.816408085268    0.000000000000
