9

 C   -0.726401905380   -3.801960247268    0.000000000000
 H   -1.705328905380   -3.310172247268    0.000000000000
 H   -0.619255905380   -4.441769247268    0.888272000000
 H   -0.619255905380   -4.441769247268   -0.888272000000
 C    0.358225094620   -2.756376247268    0.000000000000
 O    0.197121094620   -1.546825247268    0.000000000000
 O    1.600511094620   -3.333384247268    0.000000000000
 H    2.235047094620   -2.594821247268    0.000000000000
RB   -0.278177056138    2.021660659651    0.000000000000
