9

 C   -0.679991450013   -4.150404809162    0.000000000000
 H   -1.658918450013   -3.658616809162    0.000000000000
 H   -0.572845450013   -4.790213809162    0.888272000000
 H   -0.572845450013   -4.790213809162   -0.888272000000
 C    0.404635549987   -3.104820809162    0.000000000000
 O    0.243531549987   -1.895269809162    0.000000000000
 O    1.646921549987   -3.681828809162    0.000000000000
 H    2.281457549987   -2.943265809162    0.000000000000
RB   -0.310982959231    2.267963748911    0.000000000000
