9

 C   -0.672256374118   -4.208478902811    0.000000000000
 H   -1.651183374118   -3.716690902811    0.000000000000
 H   -0.565110374118   -4.848287902811    0.888272000000
 H   -0.565110374118   -4.848287902811   -0.888272000000
 C    0.412370625882   -3.162894902811    0.000000000000
 O    0.251266625882   -1.953343902811    0.000000000000
 O    1.654656625882   -3.739902902811    0.000000000000
 H    2.289192625882   -3.001339902811    0.000000000000
RB   -0.316450609747    2.309014263788    0.000000000000
