9

 C   -0.664521298224   -4.266552996460    0.000000000000
 H   -1.643448298224   -3.774764996460    0.000000000000
 H   -0.557375298224   -4.906361996460    0.888272000000
 H   -0.557375298224   -4.906361996460   -0.888272000000
 C    0.420105701776   -3.220968996460    0.000000000000
 O    0.259001701776   -2.011417996460    0.000000000000
 O    1.662391701776   -3.797976996460    0.000000000000
 H    2.296927701776   -3.059413996460    0.000000000000
RB   -0.321918260262    2.350064778664    0.000000000000
