9

 C   -0.641316070541   -4.440775277407    0.000000000000
 H   -1.620243070541   -3.948987277407    0.000000000000
 H   -0.534170070541   -5.080584277407    0.888272000000
 H   -0.534170070541   -5.080584277407   -0.888272000000
 C    0.443310929459   -3.395191277407    0.000000000000
 O    0.282206929459   -2.185640277407    0.000000000000
 O    1.685596929459   -3.972199277407    0.000000000000
 H    2.320132929459   -3.233636277407    0.000000000000
RB   -0.338321211809    2.473216323294    0.000000000000
