9

 C   -0.610375766963   -4.673071652003    0.000000000000
 H   -1.589302766963   -4.181283652003    0.000000000000
 H   -0.503229766963   -5.312880652003    0.888272000000
 H   -0.503229766963   -5.312880652003   -0.888272000000
 C    0.474251233037   -3.627487652003    0.000000000000
 O    0.313147233037   -2.417936652003    0.000000000000
 O    1.716537233037   -4.204495652003    0.000000000000
 H    2.351073233037   -3.465932652003    0.000000000000
RB   -0.360191813871    2.637418382801    0.000000000000
