9

 C   -0.594905615174   -4.789219839300    0.000000000000
 H   -1.573832615174   -4.297431839300    0.000000000000
 H   -0.487759615174   -5.429028839300    0.888272000000
 H   -0.487759615174   -5.429028839300   -0.888272000000
 C    0.489721384826   -3.743635839300    0.000000000000
 O    0.328617384826   -2.534084839300    0.000000000000
 O    1.732007384826   -4.320643839300    0.000000000000
 H    2.366543384826   -3.582080839300    0.000000000000
RB   -0.371127114902    2.719519412554    0.000000000000
