9

 C   -0.471144400863   -5.718405337683    0.000000000000
 H   -1.450071400863   -5.226617337683    0.000000000000
 H   -0.363998400863   -6.358214337683    0.888272000000
 H   -0.363998400863   -6.358214337683   -0.888272000000
 C    0.613482599137   -4.672821337683    0.000000000000
 O    0.452378599137   -3.463270337683    0.000000000000
 O    1.855768599137   -5.249829337683    0.000000000000
 H    2.490304599137   -4.511266337683    0.000000000000
RB   -0.458609523150    3.376327650580    0.000000000000
