9

 C   -0.463409324968   -5.776479431332    0.000000000000
 H   -1.442336324968   -5.284691431332    0.000000000000
 H   -0.356263324968   -6.416288431332    0.888272000000
 H   -0.356263324968   -6.416288431332   -0.888272000000
 C    0.621217675032   -4.730895431332    0.000000000000
 O    0.460113675032   -3.521344431332    0.000000000000
 O    1.863503675032   -5.307903431332    0.000000000000
 H    2.498039675032   -4.569340431332    0.000000000000
RB   -0.464077173666    3.417378165456    0.000000000000
