9

 C   -0.424733945496   -6.066849899577    0.000000000000
 H   -1.403660945496   -5.575061899577    0.000000000000
 H   -0.317587945496   -6.706658899577    0.888272000000
 H   -0.317587945496   -6.706658899577   -0.888272000000
 C    0.659893054504   -5.021265899577    0.000000000000
 O    0.498789054504   -3.811714899577    0.000000000000
 O    1.902179054504   -5.598273899577    0.000000000000
 H    2.536715054504   -4.859710899577    0.000000000000
RB   -0.491415426243    3.622630739839    0.000000000000
