9

 C   -0.416998869601   -6.124923993226    0.000000000000
 H   -1.395925869601   -5.633135993226    0.000000000000
 H   -0.309852869601   -6.764732993226    0.888272000000
 H   -0.309852869601   -6.764732993226   -0.888272000000
 C    0.667628130399   -5.079339993226    0.000000000000
 O    0.506524130399   -3.869788993226    0.000000000000
 O    1.909914130399   -5.656347993226    0.000000000000
 H    2.544450130399   -4.917784993226    0.000000000000
RB   -0.496883076759    3.663681254716    0.000000000000
