9

 C   -0.409263793707   -6.182998086875    0.000000000000
 H   -1.388190793707   -5.691210086875    0.000000000000
 H   -0.302117793707   -6.822807086875    0.888272000000
 H   -0.302117793707   -6.822807086875   -0.888272000000
 C    0.675363206293   -5.137414086875    0.000000000000
 O    0.514259206293   -3.927863086875    0.000000000000
 O    1.917649206293   -5.714422086875    0.000000000000
 H    2.552185206293   -4.975859086875    0.000000000000
RB   -0.502350727274    3.704731769593    0.000000000000
