9

 C   -0.378323490129   -6.415294461471    0.000000000000
 H   -1.357250490129   -5.923506461471    0.000000000000
 H   -0.271177490129   -7.055103461471    0.888272000000
 H   -0.271177490129   -7.055103461471   -0.888272000000
 C    0.706303509871   -5.369710461471    0.000000000000
 O    0.545199509871   -4.160159461471    0.000000000000
 O    1.948589509871   -5.946718461471    0.000000000000
 H    2.583125509871   -5.208155461471    0.000000000000
RB   -0.524221329336    3.868933829099    0.000000000000
