9

 C   -0.370588414235   -6.473368555120    0.000000000000
 H   -1.349515414235   -5.981580555120    0.000000000000
 H   -0.263442414235   -7.113177555120    0.888272000000
 H   -0.263442414235   -7.113177555120   -0.888272000000
 C    0.714038585765   -5.427784555120    0.000000000000
 O    0.552934585765   -4.218233555120    0.000000000000
 O    1.956324585765   -6.004792555120    0.000000000000
 H    2.590860585765   -5.266229555120    0.000000000000
RB   -0.529688979852    3.909984343976    0.000000000000
