9

 C   -0.300972731184   -6.996035397960    0.000000000000
 H   -1.279899731184   -6.504247397960    0.000000000000
 H   -0.193826731184   -7.635844397960    0.888272000000
 H   -0.193826731184   -7.635844397960   -0.888272000000
 C    0.783654268816   -5.950451397960    0.000000000000
 O    0.622550268816   -4.740900397960    0.000000000000
 O    2.025940268816   -6.527459397960    0.000000000000
 H    2.660476268816   -5.788896397960    0.000000000000
RB   -0.578897834491    4.279438977865    0.000000000000
