9

 C   -0.293237655290   -7.054109491609    0.000000000000
 H   -1.272164655290   -6.562321491609    0.000000000000
 H   -0.186091655290   -7.693918491609    0.888272000000
 H   -0.186091655290   -7.693918491609   -0.888272000000
 C    0.791389344710   -6.008525491609    0.000000000000
 O    0.630285344710   -4.798974491609    0.000000000000
 O    2.033675344710   -6.585533491609    0.000000000000
 H    2.668211344710   -5.846970491609    0.000000000000
RB   -0.584365485007    4.320489492742    0.000000000000
