9

 C   -0.246827199923   -7.402554053502    0.000000000000
 H   -1.225754199923   -6.910766053502    0.000000000000
 H   -0.139681199923   -8.042363053502    0.888272000000
 H   -0.139681199923   -8.042363053502   -0.888272000000
 C    0.837799800077   -6.356970053502    0.000000000000
 O    0.676695800077   -5.147419053502    0.000000000000
 O    2.080085800077   -6.933978053502    0.000000000000
 H    2.714621800077   -6.195415053502    0.000000000000
RB   -0.617171388100    4.566792582001    0.000000000000
