25

 N   -5.017304957691    3.010822299992   -0.061519367040
 C   -3.828884957691    3.693642299992   -0.056549367040
 H   -3.906194957691    4.781542299992   -0.069329367040
 C   -5.110944957691    1.620582299992   -0.042049367040
 O   -6.163944957691    1.004982299992   -0.038229367040
 N   -3.856914957691    0.999422299992   -0.027119367040
 H   -3.886874957691   -0.017957700008   -0.016119367040
 C   -2.609424957691    1.597912299992   -0.024729367040
 O   -1.584104957691    0.886472299992   -0.012519367040
 C   -2.626864957691    3.042672299992   -0.038109367040
 H   -1.683834957691    3.582892299992   -0.032839367040
 H   -5.905184957691    3.503662299992   -0.072809367040
 K    0.527875042309   -0.295407700008    0.003730632960
 O    1.400507340191   -0.783739341510    0.010444841825
 C    2.425839853492   -1.495180131091    0.022654743093
 N    3.673314831492   -0.896667222431    0.027177389593
 H    3.703261541733    0.120727822092    0.017679372587
 C    4.927333829077   -1.517819994145    0.042468824733
 O    5.980326513775   -0.902195929514    0.040603477937
 N    4.833707177773   -2.908082752627    0.059832664880
 H    5.721588928225   -3.400927932758    0.071310436237
 C    3.645301337851   -3.590920190567    0.052677954058
 H    3.722618345316   -4.678837964339    0.063952539143
 C    2.443280256767   -2.939953572606    0.033964511552
 H    1.500262827827   -3.480181962206    0.026955361420
