25

 N   -5.128809671682    3.073221024855   -0.062302322515
 C   -3.940389671682    3.756041024855   -0.057332322515
 H   -4.017699671682    4.843941024855   -0.070112322515
 C   -5.222449671682    1.682981024855   -0.042832322515
 O   -6.275449671682    1.067381024855   -0.039012322515
 N   -3.968419671682    1.061821024855   -0.027902322515
 H   -3.998379671682    0.044441024855   -0.016902322515
 C   -2.720929671682    1.660311024855   -0.025512322515
 O   -1.695609671682    0.948871024855   -0.013302322515
 C   -2.738369671682    3.105071024855   -0.038892322515
 H   -1.795339671682    3.645291024855   -0.033622322515
 H   -6.016689671682    3.566061024855   -0.073592322515
 K    0.416370328318   -0.233008975145    0.002947677485
 O    1.550792315565   -0.867840109098    0.011676149011
 C    2.576124828866   -1.579280898679    0.023886050278
 N    3.823603160546   -0.980771502857    0.027922385371
 H    3.853551666242    0.036620211081    0.018079529277
 C    5.077623215942   -1.601924169301    0.043131124188
 O    6.130617854247   -0.986304963576    0.040818605732
 N    4.983995123161   -2.992180709603    0.060978331020
 H    5.871877564801   -3.485025596040    0.072415172368
 C    3.795584991055   -3.675015740222    0.054324327233
 H    3.872900333420   -4.762930017795    0.065942454728
 C    2.593562178881   -3.024050573491    0.035671694259
 H    1.650541043407   -3.564277495299    0.029059326784
