25

 N   -5.165977900056    3.094020603161   -0.062563920469
 C   -3.977557900056    3.776840603161   -0.057593920469
 H   -4.054867900056    4.864740603161   -0.070373920469
 C   -5.259617900056    1.703780603161   -0.043093920469
 O   -6.312617900056    1.088180603161   -0.039273920469
 N   -4.005587900056    1.082620603161   -0.028163920469
 H   -4.035547900056    0.065240603161   -0.017163920469
 C   -2.758097900056    1.681110603161   -0.025773920469
 O   -1.732777900056    0.969670603161   -0.013563920469
 C   -2.775537900056    3.125870603161   -0.039153920469
 H   -1.832507900056    3.666090603161   -0.033883920469
 H   -6.053857900056    3.586860603161   -0.073853920469
 K    0.379202099944   -0.212209396839    0.002686079531
 O    1.600887316979   -0.895873694943    0.012085971944
 C    2.626219830280   -1.607314484523    0.024295873211
 N    3.873699228293   -1.008806265741    0.028174079292
 H    3.903648300673    0.008584340545    0.018219095413
 C    5.127719623540   -1.629958903874    0.043355928499
 O    6.180714874873   -1.014341310074    0.040898007884
 N    5.034091086056   -3.020213387679    0.061360306548
 H    5.921973750411   -3.513058181548    0.072783839032
 C    3.845679583166   -3.703047599698    0.054869112783
 H    3.922994401168   -4.790960715861    0.066598946417
 C    2.643656211129   -3.052082900497    0.036236252836
 H    1.700633890141   -3.592309316640    0.029752903354
