25

 N   -5.203146123822    3.114820183010   -0.062825815489
 C   -4.014726123822    3.797640183010   -0.057855815489
 H   -4.092036123822    4.885540183010   -0.070635815489
 C   -5.296786123822    1.724580183010   -0.043355815489
 O   -6.349786123822    1.108980183010   -0.039535815489
 N   -4.042756123822    1.103420183010   -0.028425815489
 H   -4.072716123822    0.086040183010   -0.017425815489
 C   -2.795266123822    1.701910183010   -0.026035815489
 O   -1.769946123822    0.990470183010   -0.013825815489
 C   -2.812706123822    3.146670183010   -0.039415815489
 H   -1.869676123822    3.686890183010   -0.034145815489
 H   -6.091026123822    3.607660183010   -0.074115815489
 K    0.342033876178   -0.191409816990    0.002424184511
 O    1.650982323001   -0.923907279244    0.012495497810
 C    2.676314836302   -1.635348068824    0.024705399077
 N    3.923795276019   -1.036841029509    0.028427403013
 H    3.953744899927   -0.019451529268    0.018361657715
 C    5.177816004998   -1.657993642528    0.043582690236
 O    6.230811851189   -1.042377656430    0.040981139328
 N    5.084187039795   -3.048246078228    0.061742324166
 H    5.972069923172   -3.541090782068    0.073152709930
 C    3.895774194806   -3.731079464355    0.055411956578
 H    3.973088503054   -4.818991421414    0.067252135115
 C    2.693750271181   -3.080115224889    0.036798628812
 H    1.750726788618   -3.620341127846    0.030442725258
