25

 N   -5.277482557989    3.156419347042   -0.063350475277
 C   -4.089062557989    3.839239347042   -0.058380475277
 H   -4.166372557989    4.927139347042   -0.071160475277
 C   -5.371122557989    1.766179347042   -0.043880475277
 O   -6.424122557989    1.150579347042   -0.040060475277
 N   -4.117092557989    1.145019347042   -0.028950475277
 H   -4.147052557989    0.127639347042   -0.017950475277
 C   -2.869602557989    1.743509347042   -0.026560475277
 O   -1.844282557989    1.032069347042   -0.014350475277
 C   -2.887042557989    3.188269347042   -0.039940475277
 H   -1.944012557989    3.728489347042   -0.034670475277
 H   -6.165362557989    3.649259347042   -0.074640475277
 K    0.267697442011   -0.149810652958    0.001899524723
 O    1.751172348410   -0.979974443513    0.013313679795
 C    2.776504861712   -1.691415233093    0.025523581062
 N    4.023987313556   -1.092910558618    0.028938822155
 H    4.053937996735   -0.075523264918    0.018655554438
 C    5.278008692224   -1.714063130564    0.044041944625
 O    6.331005675695   -1.098450346409    0.041158320774
 N    5.184378920488   -3.104311495814    0.062506482645
 H    6.072262231166   -3.597156026932    0.073891049693
 C    3.995963474421   -3.787143210044    0.056491959139
 H    4.073276805352   -4.875052856492    0.068548842078
 C    2.793938471750   -3.136179867378    0.037916990585
 H    1.850912735447   -3.676404722919    0.031811376214
