25

 N   -5.463323570465    3.260417279243   -0.064666961158
 C   -4.274903570465    3.943237279243   -0.059696961158
 H   -4.352213570465    5.031137279243   -0.072476961158
 C   -5.556963570465    1.870177279243   -0.045196961158
 O   -6.609963570465    1.254577279243   -0.041376961158
 N   -4.302933570465    1.249017279243   -0.030266961158
 H   -4.332893570465    0.231637279243   -0.019266961158
 C   -3.055443570465    1.847507279243   -0.027876961158
 O   -2.030123570465    1.136067279243   -0.015666961158
 C   -3.072883570465    3.292267279243   -0.041256961158
 H   -2.129853570465    3.832487279243   -0.035986961158
 H   -6.351203570465    3.753257279243   -0.075956961158
 K    0.081856429535   -0.045812720757    0.000583038842
 O    2.001647484875   -1.120142332063    0.015354298347
 C    3.026979998177   -1.831583121643    0.027564199614
 N    4.274467092890   -1.233084379281    0.030243903955
 H    4.304420187083   -0.215702561955    0.019439075260
 C    5.528489998451   -1.854236897275    0.045221948485
 O    6.581489541746   -1.238632031303    0.041661989074
 N    5.434858473465   -3.244475242403    0.064417564279
 H    6.322742793413   -3.737319381416    0.075740224355
 C    4.246436977754   -3.927302678260    0.059160352919
 H    4.323748093686   -5.015206599497    0.071736835307
 C    3.044409410515   -3.276341453136    0.040677361190
 H    2.101378418564   -3.816563583606    0.035171875677
