25

 N   -5.611996311900    3.343615643778   -0.065724812072
 C   -4.423576311900    4.026435643778   -0.060754812072
 H   -4.500886311900    5.114335643778   -0.073534812072
 C   -5.705636311900    1.953375643778   -0.046254812072
 O   -6.758636311900    1.337775643778   -0.042434812072
 N   -4.451606311900    1.332215643778   -0.031324812072
 H   -4.481566311900    0.314835643778   -0.020324812072
 C   -3.204116311900    1.930705643778   -0.028934812072
 O   -2.178796311900    1.219265643778   -0.016724812072
 C   -3.221556311900    3.375465643778   -0.042314812072
 H   -2.278526311900    3.915685643778   -0.037044812072
 H   -6.499876311900    3.836455643778   -0.077014812072
 K   -0.066816311900    0.037385643778   -0.000474812072
 O    2.202027662593   -1.232276624128    0.016982130979
 C    3.227360175895   -1.943717413708    0.029192032246
 N    4.474850622880   -1.345223419794    0.031313547528
 H    4.504805425403   -0.327845933307    0.020112913776
 C    5.728874658083   -1.966375938788    0.046196671546
 O    6.781875986620   -1.350777308610    0.042123451299
 N    5.635241972701   -3.356606434634    0.065947090491
 H    6.523127044171   -3.849450296844    0.077222769747
 C    4.446816062190   -4.039430369740    0.061264594153
 H    4.524125618093   -5.127329771958    0.074235392890
 C    3.244786570122   -3.388470720744    0.042851403833
 H    2.301751729353   -3.928690581951    0.037801349181
