25

 N   -5.649164488485    3.364415237074   -0.065989885574
 C   -4.460744488485    4.047235237074   -0.061019885574
 H   -4.538054488485    5.135135237074   -0.073799885574
 C   -5.742804488485    1.974175237074   -0.046519885574
 O   -6.795804488485    1.358575237074   -0.042699885574
 N   -4.488774488485    1.353015237074   -0.031589885574
 H   -4.518734488485    0.335635237074   -0.020589885574
 C   -3.241284488485    1.951505237074   -0.029199885574
 O   -2.215964488485    1.240065237074   -0.016989885574
 C   -3.258724488485    3.396265237074   -0.042579885574
 H   -2.315694488485    3.936485237074   -0.037309885574
 H   -6.537044488485    3.857255237074   -0.077279885574
 K   -0.103984488485    0.058185237074   -0.000739885574
 O    2.252122715796   -1.260310194983    0.017388478364
 C    3.277455229097   -1.971750984563    0.029598379631
 N    4.524946468066   -1.373258176187    0.031584309274
 H    4.554901669738   -0.355881764455    0.020287533480
 C    5.778970773872   -1.994410700888    0.046444376773
 O    6.831972515549   -1.378813614943    0.042246484233
 N    5.685337828787   -3.384639258189    0.066329558644
 H    6.573223080927   -3.877483055868    0.077593826073
 C    4.496910868860   -4.067462309875    0.061786662265
 H    4.574220061577   -5.155360591715    0.074853241415
 C    3.294880912032   -3.416503039706    0.043390427082
 H    2.351845154561   -3.956722323489    0.038450997960
