25

 N   -5.835005322790    3.468413214206   -0.067318715437
 C   -4.646585322790    4.151233214206   -0.062348715437
 H   -4.723895322790    5.239133214206   -0.075128715437
 C   -5.928645322790    2.078173214206   -0.047848715437
 O   -6.981645322790    1.462573214206   -0.044028715437
 N   -4.674615322790    1.457013214206   -0.032918715437
 H   -4.704575322790    0.439633214206   -0.021918715437
 C   -3.427125322790    2.055503214206   -0.030528715437
 O   -2.401805322790    1.344063214206   -0.018318715437
 C   -3.444565322790    3.500263214206   -0.043908715437
 H   -2.501535322790    4.040483214206   -0.038638715437
 H   -6.722885322790    3.961253214206   -0.078608715437
 K   -0.289825322790    0.162183214206   -0.002068715437
 O    2.502598030432   -1.400478038602    0.019416752934
 C    3.527930543734   -2.111918828182    0.031626654201
 N    4.775425488560   -1.513431928232    0.032957113295
 H    4.805382532728   -0.496060837831    0.021195552175
 C    6.029451081667   -2.134584510637    0.047705716772
 O    7.082454707614   -1.518995052920    0.042905113670
 N    5.935817003231   -3.524803520286    0.068242390425
 H    6.823703118462   -4.017647020901    0.079451488594
 C    4.747385096560   -4.207622118847    0.064374371938
 H    4.824692620312   -5.295514859267    0.077903988074
 C    3.545352908266   -3.556664657921    0.046060105106
 H    2.602312819378   -4.096881005726    0.041655480994
