25

 N   -5.983677936237    3.551611606278   -0.068385709767
 C   -4.795257936237    4.234431606278   -0.063415709767
 H   -4.872567936237    5.322331606278   -0.076195709767
 C   -6.077317936237    2.161371606278   -0.048915709767
 O   -7.130317936237    1.545771606278   -0.045095709767
 N   -4.823287936237    1.540211606278   -0.033985709767
 H   -4.853247936237    0.522831606278   -0.022985709767
 C   -3.575797936237    2.138701606278   -0.031595709767
 O   -2.550477936237    1.427261606278   -0.019385709767
 C   -3.593237936237    3.583461606278   -0.044975709767
 H   -2.650207936237    4.123681606278   -0.039705709767
 H   -6.871557936237    4.044451606278   -0.079675709767
 K   -0.438497936237    0.245381606278   -0.003135709767
 O    2.702978336138   -1.512612303132    0.021035442150
 C    3.728310849440   -2.224053092712    0.033245343417
 N    4.975808478337   -1.625570886397    0.034076919751
 H    5.005766828059   -0.608203985566    0.021961608097
 C    6.229835028013   -2.246723546169    0.048740686838
 O    7.282839962587   -1.631140075206    0.043481357909
 N    6.136200222645   -3.636935093543    0.069773213354
 H    7.024086983295   -4.129778384618    0.080940321499
 C    4.947764691488   -4.319750100282    0.066418849402
 H    5.025071041399   -5.407638484145    0.080300885295
 C    3.745730821867   -3.668793991783    0.048166970330
 H    2.802687547656   -4.209007944511    0.044169390517
