25

 N   -6.020846082658    3.572411205433   -0.068652974920
 C   -4.832426082658    4.255231205433   -0.063682974920
 H   -4.909736082658    5.343131205433   -0.076462974920
 C   -6.114486082658    2.182171205433   -0.049182974920
 O   -7.167486082658    1.566571205433   -0.045362974920
 N   -4.860456082658    1.561011205433   -0.034252974920
 H   -4.890416082658    0.543631205433   -0.023252974920
 C   -3.612966082658    2.159501205433   -0.031862974920
 O   -2.587646082658    1.448061205433   -0.019652974920
 C   -3.630406082658    3.604261205433   -0.045242974920
 H   -2.687376082658    4.144481205433   -0.039972974920
 H   -6.908726082658    4.065251205433   -0.079942974920
 K   -0.475666082658    0.266181205433   -0.003402974920
 O    2.753073419505   -1.540645868127    0.021439597884
 C    3.778405932806   -2.252086657707    0.033649499151
 N    5.025904196855   -1.653605618990    0.034359705374
 H    5.055862851546   -0.636239755646    0.022158331999
 C    6.279930976215   -2.274758301957    0.049002833084
 O    7.332936212750   -1.659176311116    0.043631903705
 N    6.186296011730   -3.664968008325    0.070155992371
 H    7.074182927900   -4.157811250585    0.081312884976
 C    4.997859617163   -4.347782114758    0.066926592359
 H    5.075165694101   -5.435669420577    0.080894366203
 C    3.795825340731   -3.696826332066    0.048689891369
 H    2.852781306139   -4.237039681131    0.044791338962
