25

 N   -6.058014226427    3.593210804977   -0.068920440077
 C   -4.869594226427    4.276030804977   -0.063950440077
 H   -4.946904226427    5.363930804977   -0.076730440077
 C   -6.151654226427    2.202970804977   -0.049450440077
 O   -7.204654226427    1.587370804977   -0.045630440077
 N   -4.897624226427    1.581810804977   -0.034520440077
 H   -4.927584226427    0.564430804977   -0.023520440077
 C   -3.650134226427    2.180300804977   -0.032130440077
 O   -2.624814226427    1.468860804977   -0.019920440077
 C   -3.667574226427    3.625060804977   -0.045510440077
 H   -2.724544226427    4.165280804977   -0.040240440077
 H   -6.945894226427    4.086050804977   -0.080210440077
 K   -0.512834226427    0.286980804977   -0.003670440077
 O    2.803168505524   -1.568679432733    0.021843553613
 C    3.828501018825   -2.280120222313    0.034053454880
 N    5.075999904365   -1.681640348615    0.034643588258
 H    5.105958855893   -0.664275518691    0.022357073058
 C    6.330026909787   -2.302793056213    0.049266297173
 O    7.383032438737   -1.687212538780    0.043784960234
 N    6.236391794716   -3.693000931410    0.070538799767
 H    7.124278864165   -4.185844126212    0.081685586002
 C    5.047954553040   -4.375814136966    0.067433028053
 H    5.125260364777   -5.463700369269    0.081485623406
 C    3.845919875005   -3.724858675361    0.049211342971
 H    2.902875093763   -4.265071419136    0.045410759559
