25

 N   -6.243854907505    3.697208807520   -0.070260656636
 C   -5.055434907505    4.380028807520   -0.065290656636
 H   -5.132744907505    5.467928807520   -0.078070656636
 C   -6.337494907505    2.306968807520   -0.050790656636
 O   -7.390494907505    1.691368807520   -0.046970656636
 N   -5.083464907505    1.685808807520   -0.035860656636
 H   -5.113424907505    0.668428807520   -0.024860656636
 C   -3.835974907505    2.284298807520   -0.033470656636
 O   -2.810654907505    1.572858807520   -0.021260656636
 C   -3.853414907505    3.729058807520   -0.046850656636
 H   -2.910384907505    4.269278807520   -0.041580656636
 H   -7.131734907505    4.190048807520   -0.081550656636
 K   -0.698674907505    0.390978807520   -0.005010656636
 O    3.053643973388   -1.708847250941    0.023860441487
 C    4.078976486689   -2.420288040521    0.036070342754
 N    5.326478285915   -1.821813949390    0.036078861972
 H    5.356438606691   -0.804454224026    0.023379933397
 C    6.580506369899   -2.442966800001    0.050602665131
 O    7.633513226325   -1.827393547692    0.044586531866
 N    6.486870621558   -3.833165666749    0.072453246949
 H    7.374758425327   -4.326008643402    0.083551079256
 C    5.298429376198   -4.515974365071    0.069946311967
 H    5.375733971670   -5.603855298964    0.084409769066
 C    4.096392764944   -3.865020441328    0.051797362405
 H    3.153344445956   -4.405230139442    0.048471326133
