25

 N   -6.318191163321    3.738808010285   -0.070798036701
 C   -5.129771163321    4.421628010285   -0.065828036701
 H   -5.207081163321    5.509528010285   -0.078608036701
 C   -6.411831163321    2.348568010285   -0.051328036701
 O   -7.464831163321    1.732968010285   -0.047508036701
 N   -5.157801163321    1.727408010285   -0.036398036701
 H   -5.187761163321    0.710028010285   -0.025398036701
 C   -3.910311163321    2.325898010285   -0.034008036701
 O   -2.884991163321    1.614458010285   -0.021798036701
 C   -3.927751163321    3.770658010285   -0.047388036701
 H   -2.984721163321    4.310878010285   -0.042118036701
 H   -7.206071163321    4.231648010285   -0.082088036701
 K   -0.773011163321    0.432578010285   -0.005548036701
 O    3.153834177148   -1.764914376477    0.024665903195
 C    4.179166690449   -2.476355166057    0.036875804462
 N    5.426669570292   -1.877883366268    0.036660067497
 H    5.456630388644   -0.860525652868    0.023802122576
 C    6.680698062861   -2.499036282519    0.051145734884
 O    7.733705391744   -1.883465888221    0.044923397552
 N    6.587062112922   -3.889231614478    0.073219209388
 H    7.474950196223   -4.382074512214    0.084298166149
 C    5.398619367935   -4.572038511367    0.070943171420
 H    5.475923524702   -5.659917358718    0.085565046561
 C    4.196582016632   -3.921085172867    0.052822267249
 H    3.253532368518   -4.461293646284    0.049679205002
