25

 N   -6.429695530499    3.801206815700   -0.071605422338
 C   -5.241275530499    4.484026815700   -0.066635422338
 H   -5.318585530499    5.571926815700   -0.079415422338
 C   -6.523335530499    2.410966815700   -0.052135422338
 O   -7.576335530499    1.795366815700   -0.048315422338
 N   -5.269305530499    1.789806815700   -0.037205422338
 H   -5.299265530499    0.772426815700   -0.026205422338
 C   -4.021815530499    2.388296815700   -0.034815422338
 O   -2.996495530499    1.676856815700   -0.022605422338
 C   -4.039255530499    3.833056815700   -0.048195422338
 H   -3.096225530499    4.373276815700   -0.042925422338
 H   -7.317575530499    4.294046815700   -0.082895422338
 K   -0.884515530499    0.494976815700   -0.006355422338
 O    3.304119499334   -1.849015063513    0.025872780218
 C    4.329452012635   -2.560455853093    0.038082681485
 N    5.576956429388   -1.961987464960    0.037539093029
 H    5.606917944752   -0.944632736789    0.024448674205
 C    6.830985511994   -2.583140487685    0.051969007665
 O    7.883993492138   -1.967574328508    0.045445210454
 N    6.737349309972   -3.973330590510    0.074368339781
 H    7.625237798326   -4.466173378076    0.085419701311
 C    5.548904416770   -4.656134790135    0.072429862098
 H    5.626207962480   -5.744010543391    0.087283336420
 C    4.346865988912   -4.005182299498    0.054349959264
 H    3.403814432680   -4.545388932025    0.051474396289
