25

 N   -6.541199878929    3.863605622125   -0.072414323523
 C   -5.352779878929    4.546425622125   -0.067444323523
 H   -5.430089878929    5.634325622125   -0.080224323523
 C   -6.634839878929    2.473365622125   -0.052944323523
 O   -7.687839878929    1.857765622125   -0.049124323523
 N   -5.380809878929    1.852205622125   -0.038014323523
 H   -5.410769878929    0.834825622125   -0.027014323523
 C   -4.133319878929    2.450695622125   -0.035624323523
 O   -3.107999878929    1.739255622125   -0.023414323523
 C   -4.150759878929    3.895455622125   -0.049004323523
 H   -3.207729878929    4.435675622125   -0.043734323523
 H   -7.429079878929    4.356445622125   -0.083704323523
 K   -0.996019878929    0.557375622125   -0.007164323523
 O    3.454404840269   -1.933115749539    0.027078141693
 C    4.479737353570   -2.644556539119    0.039288042960
 N    5.727243212471   -2.046091530505    0.038426433073
 H    5.757205369429   -1.028739747804    0.025110510852
 C    6.981272859148   -2.667244668444    0.052802266458
 O    8.034281426260   -2.051682681913    0.045986048469
 N    6.887636460990   -4.057429629190    0.075517685327
 H    7.775525338157   -4.550272315796    0.086542278895
 C    5.699189534102   -4.740231140190    0.073906647025
 H    5.776492521465   -5.828103842562    0.088984776210
 C    4.497150068051   -4.089279463221    0.055866516578
 H    3.554096700628   -4.629484252811    0.053250432670
