25

 N   -6.689872316328    3.946804031377   -0.073495100475
 C   -5.501452316328    4.629624031377   -0.068525100475
 H   -5.578762316328    5.717524031377   -0.081305100475
 C   -6.783512316328    2.556564031377   -0.054025100475
 O   -7.836512316328    1.940964031377   -0.050205100475
 N   -5.529482316328    1.935404031377   -0.039095100475
 H   -5.559442316328    0.918024031377   -0.028095100475
 C   -4.281992316328    2.533894031377   -0.036705100475
 O   -3.256672316328    1.822454031377   -0.024495100475
 C   -4.299432316328    3.978654031377   -0.050085100475
 H   -3.356402316328    4.518874031377   -0.044815100475
 H   -7.577752316328    4.439644031377   -0.084785100475
 K   -1.144692316328    0.640574031377   -0.008245100475
 O    3.654785322022   -2.045249996887    0.028683048287
 C    4.680117835324   -2.756690786467    0.040892949554
 N    5.927625480543   -2.158230231097    0.039621853246
 H    5.957588413555   -1.140882313152    0.026015571676
 C    7.181655841516   -2.779383534689    0.053928051050
 O    8.234665099487   -2.163827014446    0.046735310709
 N    7.088019260996   -4.169561773329    0.077050464390
 H    7.975908632859   -4.662404338502    0.088040591177
 C    5.899569788209   -4.852359717673    0.075861039498
 H    5.976872106521   -5.940228419827    0.091228435400
 C    4.697528994197   -4.201409075660    0.057872120814
 H    3.754473352273   -4.741611409252    0.055590144241
