25

 N   -6.764208524091    3.988403235994   -0.074036407876
 C   -5.575788524091    4.671223235994   -0.069066407876
 H   -5.653098524091    5.759123235994   -0.081846407876
 C   -6.857848524091    2.598163235994   -0.054566407876
 O   -7.910848524091    1.982563235994   -0.050746407876
 N   -5.603818524091    1.977003235994   -0.039636407876
 H   -5.633778524091    0.959623235994   -0.028636407876
 C   -4.356328524091    2.575493235994   -0.037246407876
 O   -3.331008524091    1.864053235994   -0.025036407876
 C   -4.373768524091    4.020253235994   -0.050626407876
 H   -3.430738524091    4.560473235994   -0.045356407876
 H   -7.652088524091    4.481243235994   -0.085326407876
 K   -1.219028524091    0.682173235994   -0.008786407876
 O    3.754975573836   -2.101317120571    0.029484582660
 C    4.780308087137   -2.812757910151    0.041694483927
 N    6.027816570858   -2.214299557884    0.040224604657
 H    6.057779860281   -1.196953545349    0.026477369822
 C    7.281847273710   -2.835452948914    0.054496998158
 O    8.334856840703   -2.219899120226    0.047121477288
 N    7.188210633149   -4.225627883296    0.077816984412
 H    8.076100242749   -4.718470392996    0.088790379414
 C    5.999759953972   -4.908424053703    0.076832229615
 H    6.077061967742   -5.996290784799    0.092340048349
 C    4.797718518890   -4.257473908940    0.058868171643
 H    3.854661796201   -4.797675016583    0.056748385838
