25

 N   -6.875712822889    4.050802042569   -0.074849468202
 C   -5.687292822889    4.733622042569   -0.069879468202
 H   -5.764602822889    5.821522042569   -0.082659468202
 C   -6.969352822889    2.660562042569   -0.055379468202
 O   -8.022352822889    2.044962042569   -0.051559468202
 N   -5.715322822889    2.039402042569   -0.040449468202
 H   -5.745282822889    1.022022042569   -0.029449468202
 C   -4.467832822889    2.637892042569   -0.038059468202
 O   -3.442512822889    1.926452042569   -0.025849468202
 C   -4.485272822889    4.082652042569   -0.051439468202
 H   -3.542242822889    4.622872042569   -0.046169468202
 H   -7.763592822889    4.543642042569   -0.086139468202
 K   -1.330532822889    0.744572042569   -0.009599468202
 O    3.905260964403   -2.185417806446    0.030685784993
 C    4.930593477704   -2.896858596026    0.042895686260
 N    6.178103155317   -2.298403518089    0.041134762243
 H    6.208066942613   -1.281060329855    0.027181153167
 C    7.432134352981   -2.919557045421    0.055357661634
 O    8.485144341354   -2.304007202302    0.047714525954
 N    7.338497658099   -4.309727093532    0.078966920562
 H    8.226387612933   -4.802569526111    0.089915817912
 C    6.150045247392   -4.992520616522    0.078281830238
 H    6.227346839140   -6.080384427327    0.093995246561
 C    4.948002877920   -4.341571193708    0.060354171940
 H    4.004944600412   -4.881770466669    0.058471855243
