25

 N   -6.912880919199    4.071601644614   -0.075120773069
 C   -5.724460919199    4.754421644614   -0.070150773069
 H   -5.801770919199    5.842321644614   -0.082930773069
 C   -7.006520919199    2.681361644614   -0.055650773069
 O   -8.059520919199    2.065761644614   -0.051830773069
 N   -5.752490919199    2.060201644614   -0.040720773069
 H   -5.782450919199    1.042821644614   -0.029720773069
 C   -4.505000919199    2.658691644614   -0.038330773069
 O   -3.479680919199    1.947251644614   -0.026120773069
 C   -4.522440919199    4.103451644614   -0.051710773069
 H   -3.579410919199    4.643671644614   -0.046440773069
 H   -7.800760919199    4.564441644614   -0.086410773069
 K   -1.367700919199    0.765371644614   -0.009870773069
 O    3.955356097881   -2.213451368552    0.031085901013
 C    4.980688611182   -2.924892158132    0.043295802280
 N    6.228198670471   -2.326438163413    0.041439710313
 H    6.258162614388   -1.309095907593    0.027418619503
 C    7.482230028451   -2.947591737450    0.055646425730
 O    8.535240146600   -2.332043209105    0.047915783454
 N    7.388593324466   -4.337760175334    0.079350273057
 H    8.276483391455   -4.830602583752    0.090291159963
 C    6.200140356539   -5.020552819726    0.078763169272
 H    6.277441816445   -6.108415666765    0.094543813366
 C    4.998097682622   -4.369603631410    0.060847413279
 H    4.055038903815   -4.909802294210    0.059042746029
