25

 N   -6.987217107083    4.113200848407   -0.075663797858
 C   -5.798797107083    4.796020848407   -0.070693797858
 H   -5.876107107083    5.883920848407   -0.083473797858
 C   -7.080857107083    2.722960848407   -0.056193797858
 O   -8.133857107083    2.107360848407   -0.052373797858
 N   -5.826827107083    2.101800848407   -0.041263797858
 H   -5.856787107083    1.084420848407   -0.030263797858
 C   -4.579337107083    2.700290848407   -0.038873797858
 O   -3.554017107083    1.988850848407   -0.026663797858
 C   -4.596777107083    4.145050848407   -0.052253797858
 H   -3.653747107083    4.685270848407   -0.046983797858
 H   -7.875097107083    4.606040848407   -0.086953797858
 K   -1.442037107083    0.806970848407   -0.010413797858
 O    4.055546369573   -2.269518493059    0.031885717997
 C    5.080878882874   -2.980959282640    0.044095619264
 N    6.328389682143   -2.382507441842    0.042051883486
 H    6.358353925952   -1.365167037325    0.027897738164
 C    7.582421354082   -3.003661111049    0.056226688724
 O    8.635431716545   -2.388115191727    0.048323508716
 N    7.488784644650   -4.393826356013    0.080117037006
 H    8.376674931718   -4.886668718318    0.091042129588
 C    6.300330590995   -5.076617249399    0.079723134541
 H    6.377631799832   -6.164478183364    0.095636332399
 C    5.098287318371   -4.425668521180    0.061830846574
 H    4.155227561407   -4.965865966128    0.060179281766
