25

 N   -7.173057550584    4.217198855639   -0.077023691789
 C   -5.984637550584    4.900018855639   -0.072053691789
 H   -6.061947550584    5.987918855639   -0.084833691789
 C   -7.266697550584    2.826958855639   -0.057553691789
 O   -8.319697550584    2.211358855639   -0.053733691789
 N   -6.012667550584    2.205798855639   -0.042623691789
 H   -6.042627550584    1.188418855639   -0.031623691789
 C   -4.765177550584    2.804288855639   -0.040233691789
 O   -3.739857550584    2.092848855639   -0.028023691789
 C   -4.782617550584    4.249048855639   -0.053613691789
 H   -3.839587550584    4.789268855639   -0.048343691789
 H   -8.060937550584    4.710038855639   -0.088313691789
 K   -1.627877550584    0.910968855639   -0.011773691789
 O    4.306022075013   -2.409686306579    0.033882928499
 C    5.331354588314   -3.121127096159    0.046092829766
 N    6.578867108847   -2.522680566042    0.043595109731
 H    6.608832029260   -1.505344711106    0.029119053411
 C    7.832899528640   -3.143834482421    0.057692711468
 O    8.885910418709   -2.528294966840    0.049372095246
 N    7.739262874655   -4.533991903565    0.082034278162
 H    8.627153688370   -5.026834162681    0.092921157876
 C    6.550806265272   -5.216778458139    0.082107806128
 H    6.628106915447   -6.304634693338    0.098341703420
 C    5.348761552769   -4.565830830630    0.064272297126
 H    4.405699485580   -5.106025247934    0.062991147828
