25

 N   -7.247393718106    4.258798057419   -0.077568543836
 C   -6.058973718106    4.941618057419   -0.072598543836
 H   -6.136283718106    6.029518057419   -0.085378543836
 C   -7.341033718106    2.868558057419   -0.058098543836
 O   -8.394033718106    2.252958057419   -0.054278543836
 N   -6.087003718106    2.247398057419   -0.043168543836
 H   -6.116963718106    1.230018057419   -0.032168543836
 C   -4.839513718106    2.845888057419   -0.040778543836
 O   -3.814193718106    2.134448057419   -0.028568543836
 C   -4.856953718106    4.290648057419   -0.054158543836
 H   -3.913923718106    4.830868057419   -0.048888543836
 H   -8.135273718106    4.751638057419   -0.088858543836
 K   -1.702213718106    0.952568057419   -0.012318543836
 O    4.406212367068   -2.465753433100    0.034680918225
 C    5.431544880369   -3.177194222680    0.046890819492
 N    6.679058041172   -2.578749786783    0.044217307377
 H    6.709023204974   -1.561415720353    0.029616600567
 C    7.933090746089   -3.199903805303    0.058285014244
 O    8.986101816330   -2.584366804154    0.049802758286
 N    7.839454139657   -4.590058159317    0.082801301711
 H    8.727345155093   -5.082900381659    0.093673384546
 C    6.650996567658   -5.272842994879    0.083055828532
 H    6.728297020043   -6.360697383905    0.099413907151
 C    5.448951300882   -4.621895788857    0.065242305736
 H    4.505888360533   -5.162089002942    0.064104589135
