25

 N   -7.396066037383    4.341996458680   -0.078659705724
 C   -6.207646037383    5.024816458680   -0.073689705724
 H   -6.284956037383    6.112716458680   -0.086469705724
 C   -7.489706037383    2.951756458680   -0.059189705724
 O   -8.542706037383    2.336156458680   -0.055369705724
 N   -6.235676037383    2.330596458680   -0.044259705724
 H   -6.265636037383    1.313216458680   -0.033259705724
 C   -4.988186037383    2.929086458680   -0.041869705724
 O   -3.962866037383    2.217646458680   -0.029659705724
 C   -5.005626037383    4.373846458680   -0.055249705724
 H   -4.062596037383    4.914066458680   -0.049979705724
 H   -8.283946037383    4.834836458680   -0.089949705724
 K   -1.850886037383    1.035766458680   -0.013409705724
 O    4.606592966943   -2.577887688439    0.036275439883
 C    5.631925480245   -3.289328478020    0.048485341150
 N    6.879439845155   -2.690888178447    0.045469700210
 H    6.909405452862   -1.673557635747    0.030626397155
 C    8.133473097841   -3.312042406047    0.059479225162
 O    9.186484480116   -2.696510354170    0.050682384155
 N    8.039836625705   -4.702190730617    0.084335555962
 H    8.927728030200   -5.195032886483    0.095178840809
 C    6.851377223485   -5.384972158296    0.084942345325
 H    6.928677320600   -6.472822911523    0.101542107066
 C    5.649330883226   -4.734025765011    0.067171612717
 H    4.706266277785   -5.274216587989    0.066313046946
