25

 N   -7.433234114062    4.362796058471   -0.078932790418
 C   -6.244814114062    5.045616058471   -0.073962790418
 H   -6.322124114062    6.133516058471   -0.086742790418
 C   -7.526874114062    2.972556058471   -0.059462790418
 O   -8.579874114062    2.356956058471   -0.055642790418
 N   -6.272844114062    2.351396058471   -0.044532790418
 H   -6.302804114062    1.334016058471   -0.033532790418
 C   -5.025354114062    2.949886058471   -0.042142790418
 O   -4.000034114062    2.238446058471   -0.029932790418
 C   -5.042794114062    4.394646058471   -0.055522790418
 H   -4.099764114062    4.934866058471   -0.050252790418
 H   -8.321114114062    4.855636058471   -0.090222790418
 K   -1.888054114062    1.056566058471   -0.013682790418
 O    4.656688120052   -2.605921252799    0.036673776076
 C    5.682020633353   -3.317362042379    0.048883677343
 N    6.929535284136   -2.718922765976    0.045784412534
 H    6.959500994360   -1.701593093178    0.030881813612
 C    8.183568669275   -3.340077046749    0.059779716512
 O    9.236580120058   -2.724546215766    0.050905984006
 N    8.089932238351   -4.730223885502    0.084719161337
 H    8.977823737230   -5.223066026143    0.095555407297
 C    6.901472397473   -5.413004467697    0.085412051518
 H    6.978772413712   -6.500854323663    0.102070885933
 C    5.699425795884   -4.762058271542    0.067651777850
 H    4.756360790342   -5.302248500158    0.066861442781
