25

 N   -7.619074479775    4.466794053938   -0.080299902178
 C   -6.430654479775    5.149614053938   -0.075329902178
 H   -6.507964479775    6.237514053938   -0.088109902178
 C   -7.712714479775    3.076554053938   -0.060829902178
 O   -8.765714479775    2.460954053938   -0.057009902178
 N   -6.458684479775    2.455394053938   -0.045899902178
 H   -6.488644479775    1.438014053938   -0.034899902178
 C   -5.211194479775    3.053884053938   -0.043509902178
 O   -4.185874479775    2.342444053938   -0.031299902178
 C   -5.228634479775    4.498644053938   -0.056889902178
 H   -4.285604479775    5.038864053938   -0.051619902178
 H   -8.506954479775    4.959634053938   -0.091589902178
 K   -2.073894479775    1.160564053938   -0.015049902178
 O    4.907163903280   -2.746089078083    0.038663768749
 C    5.932496416581   -3.457529867663    0.050873670017
 N    7.180012411928   -2.859095641390    0.047367236177
 H    7.209978587725   -1.841770252587    0.032175922716
 C    8.434046433933   -3.480250192668    0.061293297328
 O    9.487058174734   -2.864725369046    0.052045176395
 N    8.340410250757   -4.870389729057    0.086637428170
 H    9.228302205214   -5.363231801314    0.097439401289
 C    7.151948322788   -5.553166124268    0.087749548032
 H    7.229247978704   -6.641011563205    0.104696010207
 C    5.949900454695   -4.902220879412    0.070040199890
 H    5.006833539678   -5.442408158355    0.069582084005
