25

 N   -7.693410618211    4.508393250384   -0.080847507480
 C   -6.504990618211    5.191213250384   -0.075877507480
 H   -6.582300618211    6.279113250384   -0.088657507480
 C   -7.787050618211    3.118153250384   -0.061377507480
 O   -8.840050618211    2.502553250384   -0.057557507480
 N   -6.533020618211    2.496993250384   -0.046447507480
 H   -6.562980618211    1.479613250384   -0.035447507480
 C   -5.285530618211    3.095483250384   -0.044057507480
 O   -4.260210618211    2.384043250384   -0.031847507480
 C   -5.302970618211    4.540243250384   -0.057437507480
 H   -4.359940618211    5.080463250384   -0.052167507480
 H   -8.581290618211    5.001233250384   -0.092137507480
 K   -2.148230618211    1.202163250384   -0.015597507480
 O    5.007354224421   -2.802156209937    0.039459005220
 C    6.032686737722   -3.513596999517    0.051668906487
 N    7.280203233451   -2.915164762593    0.048004538302
 H    7.310169574836   -1.897841057100    0.032701237172
 C    8.534237498890   -3.536319423981    0.061903741204
 O    9.587249332732   -2.920796958549    0.052510401147
 N    8.440601432838   -4.926456097600    0.087404843018
 H    9.328493562227   -5.419298145898    0.098193522196
 C    7.252138717098   -5.609230837359    0.088679575471
 H    7.329438248194   -6.697074541465    0.105737603754
 C    6.050090360391   -4.958285957684    0.070989980701
 H    5.107022721978   -5.498472067622    0.070660727446
