25

 N   -7.842082882511    4.591591640063   -0.081943960970
 C   -6.653662882511    5.274411640063   -0.076973960970
 H   -6.730972882511    6.362311640063   -0.089753960970
 C   -7.935722882511    3.201351640063   -0.062473960970
 O   -8.988722882511    2.585751640063   -0.058653960970
 N   -6.681692882511    2.580191640063   -0.047543960970
 H   -6.711652882511    1.562811640063   -0.036543960970
 C   -5.434202882511    3.178681640063   -0.045153960970
 O   -4.408882882511    2.467241640063   -0.032943960970
 C   -5.451642882511    4.623441640063   -0.058533960970
 H   -4.508612882511    5.163661640063   -0.053263960970
 H   -8.729962882511    5.084431640063   -0.093233960970
 K   -2.296902882511    1.285361640063   -0.016693960970
 O    5.207734879273   -2.914290476859    0.041048235276
 C    6.233067392575   -3.625731266440    0.053258136543
 N    7.480584829550   -3.027302955642    0.049285961042
 H    7.510551469566   -2.009982565571    0.033764400841
 C    8.734619563654   -3.648457839955    0.063132818256
 O    9.787631547585   -3.032940015562    0.053456452553
 N    8.640983759648   -5.038588885486    0.088939849403
 H    9.528876227112   -5.531430891211    0.099702619169
 C    7.452519543557   -5.721360348420    0.090531507054
 H    7.529818855387   -6.809200636824    0.107806972779
 C    6.250470238809   -5.070416174343    0.072880411045
 H    5.307401218246   -5.610599965987    0.072802305779
