25

 N   -7.879250946077    4.612391236786   -0.082218325601
 C   -6.690830946077    5.295211236786   -0.077248325601
 H   -6.768140946077    6.383111236786   -0.090028325601
 C   -7.972890946077    3.222151236786   -0.062748325601
 O   -9.025890946077    2.606551236786   -0.058928325601
 N   -6.718860946077    2.600991236786   -0.047818325601
 H   -6.748820946077    1.583611236786   -0.036818325601
 C   -5.471370946077    3.199481236786   -0.045428325601
 O   -4.446050946077    2.488041236786   -0.033218325601
 C   -5.488810946077    4.644241236786   -0.058808325601
 H   -4.545780946077    5.184461236786   -0.053538325601
 H   -8.767130946077    5.105231236786   -0.093508325601
 K   -2.334070946077    1.306161236786   -0.016968325601
 O    5.257830045495   -2.942324044286    0.041445291532
 C    6.283162558797   -3.653764833866    0.053655192799
 N    7.530680219261   -3.055337493671    0.049607695134
 H    7.560646927502   -2.038017921892    0.034032725748
 C    8.784715066887   -3.676492434211    0.063441743046
 O    9.837727081255   -3.060975754570    0.053696119440
 N    8.691079333803   -5.066622092721    0.089323636722
 H    9.578971883421   -5.559464088858    0.100080066292
 C    7.502614757610   -5.749392743649    0.090992847769
 H    7.579914020617   -6.837232189248    0.108321521616
 C    6.300565221726   -5.098448741003    0.073351172678
 H    5.357495868524   -5.638631957304    0.073334524765
