25

 N   -8.027923190838    4.695589620776   -0.083316751491
 C   -6.839503190838    5.378409620776   -0.078346751491
 H   -6.916813190838    6.466309620776   -0.091126751491
 C   -8.121563190838    3.305349620776   -0.063846751491
 O   -9.174563190838    2.689749620776   -0.060026751491
 N   -6.867533190838    2.684189620776   -0.048916751491
 H   -6.897493190838    1.666809620776   -0.037916751491
 C   -5.620043190838    3.282679620776   -0.046526751491
 O   -4.594723190838    2.571239620776   -0.034316751491
 C   -5.637483190838    4.727439620776   -0.059906751491
 H   -4.694453190838    5.267659620776   -0.054636751491
 H   -8.915803190838    5.188429620776   -0.094606751491
 K   -2.482743190838    1.389359620776   -0.018066751491
 O    5.458210719888   -3.054458316898    0.043032549189
 C    6.483543233189   -3.765899106478    0.055242450456
 N    7.731061743096   -3.167475605161    0.050899938471
 H    7.761028700198   -2.150159264847    0.035115781427
 C    8.985097030952   -3.788630772273    0.064683816108
 O   10.038109140724   -3.173118610597    0.054666930261
 N    8.891461601393   -5.178754961143    0.090858923543
 H    9.779354470603   -5.671596922866    0.101590520404
 C    7.702995641447   -5.861522393259    0.092831888116
 H    7.780294731521   -6.949358511482    0.110368962100
 C    6.500945203507   -5.210579057389    0.075227112151
 H    5.557874568582   -5.750759989797    0.075451174412
