25

 N   -8.139427364893    4.757988405622   -0.084141553220
 C   -6.951007364893    5.440808405622   -0.079171553220
 H   -7.028317364893    6.528708405622   -0.091951553220
 C   -8.233067364893    3.367748405622   -0.064671553220
 O   -9.286067364893    2.752148405622   -0.060851553220
 N   -6.979037364893    2.746588405622   -0.049741553220
 H   -7.008997364893    1.729208405622   -0.038741553220
 C   -5.731547364893    3.345078405622   -0.047351553220
 O   -4.706227364893    2.633638405622   -0.035141553220
 C   -5.748987364893    4.789838405622   -0.060731553220
 H   -4.805957364893    5.330058405622   -0.055461553220
 H   -9.027307364893    5.250828405622   -0.095431553220
 K   -2.594247364893    1.451758405622   -0.018891553220
 O    5.608496235197   -3.138559024503    0.044222010119
 C    6.633828748498   -3.849999814083    0.056431911386
 N    7.881347851172   -3.251579146446    0.051874509932
 H    7.911314971128   -2.234265186484    0.035937979956
 C    9.135383455277   -3.872734484958    0.065621843284
 O   10.188395610660   -3.257225648599    0.055407369249
 N    9.041748272623   -5.262854652523    0.092010528343
 H    9.929641372439   -5.755696592330    0.102724036904
 C    7.853281331483   -5.945619701510    0.094204748193
 H    7.930580313940   -7.033453369620    0.111893621455
 C    6.651230239730   -5.294676846641    0.076626849896
 H    5.708158692380   -5.834856084914    0.077026246455
