25

 N   -8.176595421183    4.778787999955   -0.084416668105
 C   -6.988175421183    5.461607999955   -0.079446668105
 H   -7.065485421183    6.549507999955   -0.092226668105
 C   -8.270235421183    3.388547999955   -0.064946668105
 O   -9.323235421183    2.772947999955   -0.061126668105
 N   -7.016205421183    2.767387999955   -0.050016668105
 H   -7.046165421183    1.750007999955   -0.039016668105
 C   -5.768715421183    3.365877999955   -0.047626668105
 O   -4.743395421183    2.654437999955   -0.035416668105
 C   -5.786155421183    4.810637999955   -0.061006668105
 H   -4.843125421183    5.350857999955   -0.055736668105
 H   -9.064475421183    5.271627999955   -0.095706668105
 K   -2.631415421183    1.472557999955   -0.019166668105
 O    5.658591408695   -3.166592594320    0.044618316121
 C    6.683923921996   -3.878033383900    0.056828217388
 N    7.931443214256   -3.279613652212    0.052200359915
 H    7.961410384228   -2.262300477567    0.036213871296
 C    9.185478921240   -3.900769048089    0.065935711443
 O   10.238491087196   -3.285261308320    0.055656454012
 N    9.091843824275   -5.290887890359    0.092394422346
 H    9.979736999300   -5.783729823559    0.103102000266
 C    7.903376566337   -5.973652150916    0.094661185403
 H    7.980675516874   -7.061485010854    0.112399829220
 C    6.701325260811   -5.322709452894    0.077092099552
 H    5.758253418192   -5.862888130107    0.077548983167
