14

 P   -0.220369524566    0.216243385452   -0.062236905635
 O   -0.807369524566    1.266243385452    0.892763094365
 O   -0.486369524566    0.264243385452   -1.574236905635
 O    1.442630475434    0.042243385452    0.224763094365
 O   -0.535369524566   -1.341756614548    0.529763094365
 C    2.179630475434    1.207243385452   -0.152236905635
 H    1.848630475434    2.090243385452    0.423763094365
 H    2.064630475434    1.418243385452   -1.230236905635
 H    3.239630475434    1.005243385452    0.067763094365
 C   -1.926369524566   -1.664756614548    0.479763094365
 H   -2.304369524566   -1.637756614548   -0.558236905635
 H   -2.519369524566   -0.965756614548    1.095763094365
 H   -2.036369524566   -2.684756614548    0.879763094365
LI    1.378726817746   -0.587444695277   -0.549452149299
