14

 P   -0.220029908905    0.219589859530   -0.058122342690
 O   -0.807029908905    1.269589859530    0.896877657310
 O   -0.486029908905    0.267589859530   -1.570122342690
 O    1.442970091095    0.045589859530    0.228877657310
 O   -0.535029908905   -1.338410140470    0.533877657310
 C    2.179970091095    1.210589859530   -0.148122342690
 H    1.848970091095    2.093589859530    0.427877657310
 H    2.064970091095    1.421589859530   -1.226122342690
 H    3.239970091095    1.008589859530    0.071877657310
 C   -1.926029908905   -1.661410140470    0.483877657310
 H   -2.304029908905   -1.634410140470   -0.554122342690
 H   -2.519029908905   -0.962410140470    1.099877657310
 H   -2.036029908905   -2.681410140470    0.883877657310
LI    1.372676067639   -0.647067029271   -0.622759110721
