14

 P   -0.219350677582    0.226282807686   -0.049893216800
 O   -0.806350677582    1.276282807686    0.905106783200
 O   -0.485350677582    0.274282807686   -1.561893216800
 O    1.443649322418    0.052282807686    0.237106783200
 O   -0.534350677582   -1.331717192314    0.542106783200
 C    2.180649322418    1.217282807686   -0.139893216800
 H    1.849649322418    2.100282807686    0.436106783200
 H    2.065649322418    1.428282807686   -1.217893216800
 H    3.240649322418    1.015282807686    0.080106783200
 C   -1.925350677582   -1.654717192314    0.492106783200
 H   -2.303350677582   -1.627717192314   -0.545893216800
 H   -2.518350677582   -0.955717192314    1.108106783200
 H   -2.035350677582   -2.674717192314    0.892106783200
LI    1.360574567424   -0.766311697261   -0.769373033564
