14

 P   -0.219011061921    0.229629281765   -0.045778653855
 O   -0.806011061921    1.279629281765    0.909221346145
 O   -0.485011061921    0.277629281765   -1.557778653855
 O    1.443988938079    0.055629281765    0.241221346145
 O   -0.534011061921   -1.328370718235    0.546221346145
 C    2.180988938079    1.220629281765   -0.135778653855
 H    1.849988938079    2.103629281765    0.440221346145
 H    2.065988938079    1.431629281765   -1.213778653855
 H    3.240988938079    1.018629281765    0.084221346145
 C   -1.925011061921   -1.651370718235    0.496221346145
 H   -2.303011061921   -1.624370718235   -0.541778653855
 H   -2.518011061921   -0.952370718235    1.112221346145
 H   -2.035011061921   -2.671370718235    0.896221346145
LI    1.354523817317   -0.825934031255   -0.842679994985
