14

 P   -0.218671446260    0.232975755843   -0.041664090910
 O   -0.805671446260    1.282975755843    0.913335909090
 O   -0.484671446260    0.280975755843   -1.553664090910
 O    1.444328553740    0.058975755843    0.245335909090
 O   -0.533671446260   -1.325024244157    0.550335909090
 C    2.181328553740    1.223975755843   -0.131664090910
 H    1.850328553740    2.106975755843    0.444335909090
 H    2.066328553740    1.434975755843   -1.209664090910
 H    3.241328553740    1.021975755843    0.088335909090
 C   -1.924671446260   -1.648024244157    0.500335909090
 H   -2.302671446260   -1.621024244157   -0.537664090910
 H   -2.517671446260   -0.949024244157    1.116335909090
 H   -2.034671446260   -2.668024244157    0.900335909090
LI    1.348473067209   -0.885556365250   -0.915986956407
