14

 P   -0.218331830599    0.236322229921   -0.037549527965
 O   -0.805331830599    1.286322229921    0.917450472035
 O   -0.484331830599    0.284322229921   -1.549549527965
 O    1.444668169401    0.062322229921    0.249450472035
 O   -0.533331830599   -1.321677770079    0.554450472035
 C    2.181668169401    1.227322229921   -0.127549527965
 H    1.850668169401    2.110322229921    0.448450472035
 H    2.066668169401    1.438322229921   -1.205549527965
 H    3.241668169401    1.025322229921    0.092450472035
 C   -1.924331830599   -1.644677770079    0.504450472035
 H   -2.302331830599   -1.617677770079   -0.533549527965
 H   -2.517331830599   -0.945677770079    1.120450472035
 H   -2.034331830599   -2.664677770079    0.904450472035
LI    1.342422317102   -0.945178699245   -0.989293917828
