14

 P   -0.217992214937    0.239668703999   -0.033434965020
 O   -0.804992214937    1.289668703999    0.921565034980
 O   -0.483992214937    0.287668703999   -1.545434965020
 O    1.445007785063    0.065668703999    0.253565034980
 O   -0.532992214937   -1.318331296001    0.558565034980
 C    2.182007785063    1.230668703999   -0.123434965020
 H    1.851007785063    2.113668703999    0.452565034980
 H    2.067007785063    1.441668703999   -1.201434965020
 H    3.242007785063    1.028668703999    0.096565034980
 C   -1.923992214937   -1.641331296001    0.508565034980
 H   -2.301992214937   -1.614331296001   -0.529434965020
 H   -2.516992214937   -0.942331296001    1.124565034980
 H   -2.033992214937   -2.661331296001    0.908565034980
LI    1.336371566995   -1.004801033240   -1.062600879250
