14

 P   -0.217652599276    0.243015178077   -0.029320402075
 O   -0.804652599276    1.293015178077    0.925679597925
 O   -0.483652599276    0.291015178077   -1.541320402075
 O    1.445347400724    0.069015178077    0.257679597925
 O   -0.532652599276   -1.314984821923    0.562679597925
 C    2.182347400724    1.234015178077   -0.119320402075
 H    1.851347400724    2.117015178077    0.456679597925
 H    2.067347400724    1.445015178077   -1.197320402075
 H    3.242347400724    1.032015178077    0.100679597925
 C   -1.923652599276   -1.637984821923    0.512679597925
 H   -2.301652599276   -1.610984821923   -0.525320402075
 H   -2.516652599276   -0.938984821923    1.128679597925
 H   -2.033652599276   -2.657984821923    0.912679597925
LI    1.330320816887   -1.064423367234   -1.135907840671
