14

 P   -0.216294136631    0.256401074390   -0.012862150296
 O   -0.803294136631    1.306401074390    0.942137849704
 O   -0.482294136631    0.304401074390   -1.524862150296
 O    1.446705863369    0.082401074390    0.274137849704
 O   -0.531294136631   -1.301598925610    0.579137849704
 C    2.183705863369    1.247401074390   -0.102862150296
 H    1.852705863369    2.130401074390    0.473137849704
 H    2.068705863369    1.458401074390   -1.180862150296
 H    3.243705863369    1.045401074390    0.117137849704
 C   -1.922294136631   -1.624598925610    0.529137849704
 H   -2.300294136631   -1.597598925610   -0.508862150296
 H   -2.515294136631   -0.925598925610    1.145137849704
 H   -2.032294136631   -2.644598925610    0.929137849704
LI    1.306117816457   -1.302912703213   -1.429135686357
