14

 P   -0.214935673986    0.269786970702    0.003596101484
 O   -0.801935673986    1.319786970702    0.958596101484
 O   -0.480935673986    0.317786970702   -1.508403898516
 O    1.448064326014    0.095786970702    0.290596101484
 O   -0.529935673986   -1.288213029298    0.595596101484
 C    2.185064326014    1.260786970702   -0.086403898516
 H    1.854064326014    2.143786970702    0.489596101484
 H    2.070064326014    1.471786970702   -1.164403898516
 H    3.245064326014    1.058786970702    0.133596101484
 C   -1.920935673986   -1.611213029298    0.545596101484
 H   -2.298935673986   -1.584213029298   -0.492403898516
 H   -2.513935673986   -0.912213029298    1.161596101484
 H   -2.030935673986   -2.631213029298    0.945596101484
LI    1.281914816028   -1.541402039192   -1.722363532044
