14

 P   -0.214596058324    0.273133444780    0.007710664429
 O   -0.801596058324    1.323133444780    0.962710664429
 O   -0.480596058324    0.321133444780   -1.504289335571
 O    1.448403941676    0.099133444780    0.294710664429
 O   -0.529596058324   -1.284866555220    0.599710664429
 C    2.185403941676    1.264133444780   -0.082289335571
 H    1.854403941676    2.147133444780    0.493710664429
 H    2.070403941676    1.475133444780   -1.160289335571
 H    3.245403941676    1.062133444780    0.137710664429
 C   -1.920596058324   -1.607866555220    0.549710664429
 H   -2.298596058324   -1.580866555220   -0.488289335571
 H   -2.513596058324   -0.908866555220    1.165710664429
 H   -2.030596058324   -2.627866555220    0.949710664429
LI    1.275864065920   -1.601024373187   -1.795670493465
