14

 P   -0.213237595679    0.286519341093    0.024168916209
 O   -0.800237595679    1.336519341093    0.979168916209
 O   -0.479237595679    0.334519341093   -1.487831083791
 O    1.449762404321    0.112519341093    0.311168916209
 O   -0.528237595679   -1.271480658907    0.616168916209
 C    2.186762404321    1.277519341093   -0.065831083791
 H    1.855762404321    2.160519341093    0.510168916209
 H    2.071762404321    1.488519341093   -1.143831083791
 H    3.246762404321    1.075519341093    0.154168916209
 C   -1.919237595679   -1.594480658907    0.566168916209
 H   -2.297237595679   -1.567480658907   -0.471831083791
 H   -2.512237595679   -0.895480658907    1.182168916209
 H   -2.029237595679   -2.614480658907    0.966168916209
LI    1.251661065491   -1.839513709166   -2.088898339151
