14

 P   -0.212558364356    0.293212289249    0.032398042099
 O   -0.799558364356    1.343212289249    0.987398042099
 O   -0.478558364356    0.341212289249   -1.479601957901
 O    1.450441635644    0.119212289249    0.319398042099
 O   -0.527558364356   -1.264787710751    0.624398042099
 C    2.187441635644    1.284212289249   -0.057601957901
 H    1.856441635644    2.167212289249    0.518398042099
 H    2.072441635644    1.495212289249   -1.135601957901
 H    3.247441635644    1.082212289249    0.162398042099
 C   -1.918558364356   -1.587787710751    0.574398042099
 H   -2.296558364356   -1.560787710751   -0.463601957901
 H   -2.511558364356   -0.888787710751    1.190398042099
 H   -2.028558364356   -2.607787710751    0.974398042099
LI    1.239559565276   -1.958758377155   -2.235512261994
