14

 P   -0.211539517373    0.303251711484    0.044741730933
 O   -0.798539517373    1.353251711484    0.999741730933
 O   -0.477539517373    0.351251711484   -1.467258269067
 O    1.451460482627    0.129251711484    0.331741730933
 O   -0.526539517373   -1.254748288516    0.636741730933
 C    2.188460482627    1.294251711484   -0.045258269067
 H    1.857460482627    2.177251711484    0.530741730933
 H    2.073460482627    1.505251711484   -1.123258269067
 H    3.248460482627    1.092251711484    0.174741730933
 C   -1.917539517373   -1.577748288516    0.586741730933
 H   -2.295539517373   -1.550748288516   -0.451258269067
 H   -2.510539517373   -0.878748288516    1.202741730933
 H   -2.027539517373   -2.597748288516    0.986741730933
LI    1.221407314954   -2.137625379139   -2.455433146259
