14

 P   -0.210860286050    0.309944659640    0.052970856823
 O   -0.797860286050    1.359944659640    1.007970856823
 O   -0.476860286050    0.357944659640   -1.459029143177
 O    1.452139713950    0.135944659640    0.339970856823
 O   -0.525860286050   -1.248055340360    0.644970856823
 C    2.189139713950    1.300944659640   -0.037029143177
 H    1.858139713950    2.183944659640    0.538970856823
 H    2.074139713950    1.511944659640   -1.115029143177
 H    3.249139713950    1.098944659640    0.182970856823
 C   -1.916860286050   -1.571055340360    0.594970856823
 H   -2.294860286050   -1.544055340360   -0.443029143177
 H   -2.509860286050   -0.872055340360    1.210970856823
 H   -2.026860286050   -2.591055340360    0.994970856823
LI    1.209305814739   -2.256870047129   -2.602047069102
