14

 P   -0.208143360760    0.336716452265    0.085887360383
 O   -0.795143360760    1.386716452265    1.040887360383
 O   -0.474143360760    0.384716452265   -1.426112639617
 O    1.454856639240    0.162716452265    0.372887360383
 O   -0.523143360760   -1.221283547735    0.677887360383
 C    2.191856639240    1.327716452265   -0.004112639617
 H    1.860856639240    2.210716452265    0.571887360383
 H    2.076856639240    1.538716452265   -1.082112639617
 H    3.251856639240    1.125716452265    0.215887360383
 C   -1.914143360760   -1.544283547735    0.627887360383
 H   -2.292143360760   -1.517283547735   -0.410112639617
 H   -2.507143360760   -0.845283547735    1.243887360383
 H   -2.024143360760   -2.564283547735    1.027887360383
LI    1.160899813879   -2.733848719087   -3.188502760474
