14

 P   -0.206445282453    0.353448822656    0.106460175107
 O   -0.793445282453    1.403448822656    1.061460175107
 O   -0.472445282453    0.401448822656   -1.405539824893
 O    1.456554717547    0.179448822656    0.393460175107
 O   -0.521445282453   -1.204551177344    0.698460175107
 C    2.193554717547    1.344448822656    0.016460175107
 H    1.862554717547    2.227448822656    0.592460175107
 H    2.078554717547    1.555448822656   -1.061539824893
 H    3.253554717547    1.142448822656    0.236460175107
 C   -1.912445282453   -1.527551177344    0.648460175107
 H   -2.290445282453   -1.500551177344   -0.389539824893
 H   -2.505445282453   -0.828551177344    1.264460175107
 H   -2.022445282453   -2.547551177344    1.048460175107
LI    1.130646063342   -3.031960389060   -3.555037567582
