14

 P   -0.205426435469    0.363488244890    0.118803863942
 O   -0.792426435469    1.413488244890    1.073803863942
 O   -0.471426435469    0.411488244890   -1.393196136058
 O    1.457573564531    0.189488244890    0.405803863942
 O   -0.520426435469   -1.194511755110    0.710803863942
 C    2.194573564531    1.354488244890    0.028803863942
 H    1.863573564531    2.237488244890    0.604803863942
 H    2.079573564531    1.565488244890   -1.049196136058
 H    3.254573564531    1.152488244890    0.248803863942
 C   -1.911426435469   -1.517511755110    0.660803863942
 H   -2.289426435469   -1.490511755110   -0.377196136058
 H   -2.504426435469   -0.818511755110    1.276803863942
 H   -2.021426435469   -2.537511755110    1.060803863942
LI    1.112493813020   -3.210827391044   -3.774958451847
