14

 P   -0.203388741501    0.383567089359    0.143491241611
 O   -0.790388741501    1.433567089359    1.098491241611
 O   -0.469388741501    0.431567089359   -1.368508758389
 O    1.459611258499    0.209567089359    0.430491241611
 O   -0.518388741501   -1.174432910641    0.735491241611
 C    2.196611258499    1.374567089359    0.053491241611
 H    1.865611258499    2.257567089359    0.629491241611
 H    2.081611258499    1.585567089359   -1.024508758389
 H    3.256611258499    1.172567089359    0.273491241611
 C   -1.909388741501   -1.497432910641    0.685491241611
 H   -2.287388741501   -1.470432910641   -0.352508758389
 H   -2.502388741501   -0.798432910641    1.301491241611
 H   -2.019388741501   -2.517432910641    1.085491241611
LI    1.076189312376   -3.568561395013   -4.214800220376
