14

 P   -0.201351047534    0.403645933828    0.168178619281
 O   -0.788351047534    1.453645933828    1.123178619281
 O   -0.467351047534    0.451645933828   -1.343821380719
 O    1.461648952466    0.229645933828    0.455178619281
 O   -0.516351047534   -1.154354066172    0.760178619281
 C    2.198648952466    1.394645933828    0.078178619281
 H    1.867648952466    2.277645933828    0.654178619281
 H    2.083648952466    1.605645933828   -0.999821380719
 H    3.258648952466    1.192645933828    0.298178619281
 C   -1.907351047534   -1.477354066172    0.710178619281
 H   -2.285351047534   -1.450354066172   -0.327821380719
 H   -2.500351047534   -0.778354066172    1.326178619281
 H   -2.017351047534   -2.497354066172    1.110178619281
LI    1.039884811731   -3.926295398981   -4.654641988905
