14

 P   -0.201011431872    0.406992407906    0.172293182226
 O   -0.788011431872    1.456992407906    1.127293182226
 O   -0.467011431872    0.454992407906   -1.339706817774
 O    1.461988568128    0.232992407906    0.459293182226
 O   -0.516011431872   -1.151007592094    0.764293182226
 C    2.198988568128    1.397992407906    0.082293182226
 H    1.867988568128    2.280992407906    0.658293182226
 H    2.083988568128    1.608992407906   -0.995706817774
 H    3.258988568128    1.195992407906    0.302293182226
 C   -1.907011431872   -1.474007592094    0.714293182226
 H   -2.285011431872   -1.447007592094   -0.323706817774
 H   -2.500011431872   -0.775007592094    1.330293182226
 H   -2.017011431872   -2.494007592094    1.114293182226
LI    1.033834061624   -3.985917732976   -4.727948950327
