14

 P   -0.198973737905    0.427071252375    0.196980559895
 O   -0.785973737905    1.477071252375    1.151980559895
 O   -0.464973737905    0.475071252375   -1.315019440105
 O    1.464026262095    0.253071252375    0.483980559895
 O   -0.513973737905   -1.130928747625    0.788980559895
 C    2.201026262095    1.418071252375    0.106980559895
 H    1.870026262095    2.301071252375    0.682980559895
 H    2.086026262095    1.629071252375   -0.971019440105
 H    3.261026262095    1.216071252375    0.326980559895
 C   -1.904973737905   -1.453928747625    0.738980559895
 H   -2.282973737905   -1.426928747625   -0.299019440105
 H   -2.497973737905   -0.754928747625    1.354980559895
 H   -2.014973737905   -2.473928747625    1.138980559895
LI    0.997529560979   -4.343651736944   -5.167790718856
