14

 P   -0.198634122243    0.430417726453    0.201095122840
 O   -0.785634122243    1.480417726453    1.156095122840
 O   -0.464634122243    0.478417726453   -1.310904877160
 O    1.464365877757    0.256417726453    0.488095122840
 O   -0.513634122243   -1.127582273547    0.793095122840
 C    2.201365877757    1.421417726453    0.111095122840
 H    1.870365877757    2.304417726453    0.687095122840
 H    2.086365877757    1.632417726453   -0.966904877160
 H    3.261365877757    1.219417726453    0.331095122840
 C   -1.904634122243   -1.450582273547    0.743095122840
 H   -2.282634122243   -1.423582273547   -0.294904877160
 H   -2.497634122243   -0.751582273547    1.359095122840
 H   -2.014634122243   -2.470582273547    1.143095122840
LI    0.991478810872   -4.403274070939   -5.241097680277
