14

 P   -0.197615275259    0.440457148687    0.213438811675
 O   -0.784615275259    1.490457148687    1.168438811675
 O   -0.463615275259    0.488457148687   -1.298561188325
 O    1.465384724741    0.266457148687    0.500438811675
 O   -0.512615275259   -1.117542851313    0.805438811675
 C    2.202384724741    1.431457148687    0.123438811675
 H    1.871384724741    2.314457148687    0.699438811675
 H    2.087384724741    1.642457148687   -0.954561188325
 H    3.262384724741    1.229457148687    0.343438811675
 C   -1.903615275259   -1.440542851313    0.755438811675
 H   -2.281615275259   -1.413542851313   -0.282561188325
 H   -2.496615275259   -0.741542851313    1.371438811675
 H   -2.013615275259   -2.460542851313    1.155438811675
LI    0.973326560549   -4.582141072923   -5.461018564542
