14

 P   -0.197275659598    0.443803622765    0.217553374620
 O   -0.784275659598    1.493803622765    1.172553374620
 O   -0.463275659598    0.491803622765   -1.294446625380
 O    1.465724340402    0.269803622765    0.504553374620
 O   -0.512275659598   -1.114196377235    0.809553374620
 C    2.202724340402    1.434803622765    0.127553374620
 H    1.871724340402    2.317803622765    0.703553374620
 H    2.087724340402    1.645803622765   -0.950446625380
 H    3.262724340402    1.232803622765    0.347553374620
 C   -1.903275659598   -1.437196377235    0.759553374620
 H   -2.281275659598   -1.410196377235   -0.278446625380
 H   -2.496275659598   -0.738196377235    1.375553374620
 H   -2.013275659598   -2.457196377235    1.159553374620
LI    0.967275810442   -4.641763406918   -5.534325525963
