14

 P   -0.196256812614    0.453843045000    0.229897063455
 O   -0.783256812614    1.503843045000    1.184897063455
 O   -0.462256812614    0.501843045000   -1.282102936545
 O    1.466743187386    0.279843045000    0.516897063455
 O   -0.511256812614   -1.104156955000    0.821897063455
 C    2.203743187386    1.444843045000    0.139897063455
 H    1.872743187386    2.327843045000    0.715897063455
 H    2.088743187386    1.655843045000   -0.938102936545
 H    3.263743187386    1.242843045000    0.359897063455
 C   -1.902256812614   -1.427156955000    0.771897063455
 H   -2.280256812614   -1.400156955000   -0.266102936545
 H   -2.495256812614   -0.728156955000    1.387897063455
 H   -2.012256812614   -2.447156955000    1.171897063455
LI    0.949123560120   -4.820630408902   -5.754246410228
