14

 P   -0.195237965630    0.463882467234    0.242240752289
 O   -0.782237965630    1.513882467234    1.197240752289
 O   -0.461237965630    0.511882467234   -1.269759247711
 O    1.467762034370    0.289882467234    0.529240752289
 O   -0.510237965630   -1.094117532766    0.834240752289
 C    2.204762034370    1.454882467234    0.152240752289
 H    1.873762034370    2.337882467234    0.728240752289
 H    2.089762034370    1.665882467234   -0.925759247711
 H    3.264762034370    1.252882467234    0.372240752289
 C   -1.901237965630   -1.417117532766    0.784240752289
 H   -2.279237965630   -1.390117532766   -0.253759247711
 H   -2.494237965630   -0.718117532766    1.400240752289
 H   -2.011237965630   -2.437117532766    1.184240752289
LI    0.930971309798   -4.999497410886   -5.974167294493
