14

 P   -0.193539887324    0.480614837625    0.262813567014
 O   -0.780539887324    1.530614837625    1.217813567014
 O   -0.459539887324    0.528614837625   -1.249186432986
 O    1.469460112676    0.306614837625    0.549813567014
 O   -0.508539887324   -1.077385162375    0.854813567014
 C    2.206460112676    1.471614837625    0.172813567014
 H    1.875460112676    2.354614837625    0.748813567014
 H    2.091460112676    1.682614837625   -0.905186432986
 H    3.266460112676    1.269614837625    0.392813567014
 C   -1.899539887324   -1.400385162375    0.804813567014
 H   -2.277539887324   -1.373385162375   -0.233186432986
 H   -2.492539887324   -0.701385162375    1.420813567014
 H   -2.009539887324   -2.420385162375    1.204813567014
LI    0.900717559260   -5.297609080860   -6.340702101600
