14

 P   -0.192521040340    0.490654259859    0.275157255849
 O   -0.779521040340    1.540654259859    1.230157255849
 O   -0.458521040340    0.538654259859   -1.236842744151
 O    1.470478959660    0.316654259859    0.562157255849
 O   -0.507521040340   -1.067345740141    0.867157255849
 C    2.207478959660    1.481654259859    0.185157255849
 H    1.876478959660    2.364654259859    0.761157255849
 H    2.092478959660    1.692654259859   -0.892842744151
 H    3.267478959660    1.279654259859    0.405157255849
 C   -1.898521040340   -1.390345740141    0.817157255849
 H   -2.276521040340   -1.363345740141   -0.220842744151
 H   -2.491521040340   -0.691345740141    1.433157255849
 H   -2.008521040340   -2.410345740141    1.217157255849
LI    0.882565308938   -5.476476082844   -6.560622985865
