14

 P   -0.192181424679    0.494000733938    0.279271818794
 O   -0.779181424679    1.544000733938    1.234271818794
 O   -0.458181424679    0.542000733938   -1.232728181206
 O    1.470818575321    0.320000733938    0.566271818794
 O   -0.507181424679   -1.063999266062    0.871271818794
 C    2.207818575321    1.485000733938    0.189271818794
 H    1.876818575321    2.368000733938    0.765271818794
 H    2.092818575321    1.696000733938   -0.888728181206
 H    3.267818575321    1.283000733938    0.409271818794
 C   -1.898181424679   -1.386999266062    0.821271818794
 H   -2.276181424679   -1.359999266062   -0.216728181206
 H   -2.491181424679   -0.687999266062    1.437271818794
 H   -2.008181424679   -2.406999266062    1.221271818794
LI    0.876514558831   -5.536098416839   -6.633929947286
