14

 P   -0.190143730711    0.514079578406    0.303959196463
 O   -0.777143730711    1.564079578406    1.258959196463
 O   -0.456143730711    0.562079578406   -1.208040803537
 O    1.472856269289    0.340079578406    0.590959196463
 O   -0.505143730711   -1.043920421594    0.895959196463
 C    2.209856269289    1.505079578406    0.213959196463
 H    1.878856269289    2.388079578406    0.789959196463
 H    2.094856269289    1.716079578406   -0.864040803537
 H    3.269856269289    1.303079578406    0.433959196463
 C   -1.896143730711   -1.366920421594    0.845959196463
 H   -2.274143730711   -1.339920421594   -0.192040803537
 H   -2.489143730711   -0.667920421594    1.461959196463
 H   -2.006143730711   -2.386920421594    1.245959196463
LI    0.840210058186   -5.893832420807   -7.073771715816
