10

 C    1.084681815017   -1.093697533713    0.414248631308
 C   -0.014617184983   -0.044837533713    0.414248631308
 N   -1.294225184983   -0.548626533713    0.414248631308
 H   -2.068898184983    0.101957466287    0.414248631308
 H   -1.480896184983   -1.540677533713    0.414248631308
 O    0.206974815017    1.168164466287    0.414248631308
 H    2.055346815017   -0.584552533713    0.414248631308
 H    1.005043815017   -1.734702533713    1.306495631308
 H    1.005043815017   -1.734702533713   -0.477998368692
LI    0.206974815017    1.168164466287   -3.485751368692
