10

 C    1.084681815017   -1.093697533713    1.009067178827
 C   -0.014617184983   -0.044837533713    1.009067178827
 N   -1.294225184983   -0.548626533713    1.009067178827
 H   -2.068898184983    0.101957466287    1.009067178827
 H   -1.480896184983   -1.540677533713    1.009067178827
 O    0.206974815017    1.168164466287    1.009067178827
 H    2.055346815017   -0.584552533713    1.009067178827
 H    1.005043815017   -1.734702533713    1.901314178827
 H    1.005043815017   -1.734702533713    0.116820178827
LI    0.206974815017    1.168164466287   -8.490932821173
