10

 C    0.381845043303    2.514676049824    0.000059365441
 H    0.775332043303    3.527805049824    0.000279365441
 C    0.993878043303    1.264568049824    0.000095365441
 H    2.059585043303    1.045841049824    0.000001365441
 N   -0.973242956697    2.245708049824    0.000047365441
 H   -1.718176956697    2.932358049824    0.000301365441
 C   -1.131048956697    0.881668049824    0.000102365441
 H   -2.108672956697    0.405652049824   -0.000023634559
 N    0.047867043303    0.255073049824    0.000091365441
CS    0.082928972505   -0.744312082803   -0.000042064839
