10

 C    0.377206987871    2.646876523362    0.000077015840
 H    0.770693987871    3.660005523362    0.000297015840
 C    0.989239987871    1.396768523362    0.000113015840
 H    2.054946987871    1.178041523362    0.000019015840
 N   -0.977881012129    2.377908523362    0.000065015840
 H   -1.722815012129    3.064558523362    0.000319015840
 C   -1.135687012129    1.013868523362    0.000120015840
 H   -2.113311012129    0.537852523362   -0.000005984160
 N    0.043228987871    0.387273523362    0.000109015840
CS    0.085303302912   -0.811988635792   -0.000051100496
