10

 C    0.374887960155    2.712976760130    0.000085841039
 H    0.768374960155    3.726105760130    0.000305841039
 C    0.986920960155    1.462868760130    0.000121841039
 H    2.052627960155    1.244141760130    0.000027841039
 N   -0.980200039845    2.444008760130    0.000073841039
 H   -1.725134039845    3.130658760130    0.000327841039
 C   -1.138006039845    1.079968760130    0.000128841039
 H   -2.115630039845    0.603952760130    0.000002841039
 N    0.040909960155    0.453373760130    0.000117841039
CS    0.086490468116   -0.845826912286   -0.000055618325
