10

 C    0.372568932438    2.779076996899    0.000094666239
 H    0.766055932438    3.792205996899    0.000314666239
 C    0.984601932438    1.528968996899    0.000130666239
 H    2.050308932438    1.310241996899    0.000036666239
 N   -0.982519067562    2.510108996899    0.000082666239
 H   -1.727453067562    3.196758996899    0.000336666239
 C   -1.140325067562    1.146068996899    0.000137666239
 H   -2.117949067562    0.670052996899    0.000011666239
 N    0.038590932438    0.519473996899    0.000126666239
CS    0.087677633320   -0.879665188780   -0.000060136153
