10

 C    0.370249904722    2.845177233667    0.000103491438
 H    0.763736904722    3.858306233667    0.000323491438
 C    0.982282904722    1.595069233667    0.000139491438
 H    2.047989904722    1.376342233667    0.000045491438
 N   -0.984838095278    2.576209233667    0.000091491438
 H   -1.729772095278    3.262859233667    0.000345491438
 C   -1.142644095278    1.212169233667    0.000146491438
 H   -2.120268095278    0.736153233667    0.000020491438
 N    0.036271904722    0.585574233667    0.000135491438
CS    0.088864798524   -0.913503465274   -0.000064653982
