10

 C    0.363292821573    3.043477943973    0.000129967037
 H    0.756779821573    4.056606943973    0.000349967037
 C    0.975325821573    1.793369943973    0.000165967037
 H    2.041032821573    1.574642943973    0.000071967037
 N   -0.991795178427    2.774509943973    0.000117967037
 H   -1.736729178427    3.461159943973    0.000371967037
 C   -1.149601178427    1.410469943973    0.000172967037
 H   -2.127225178427    0.934453943973    0.000046967037
 N    0.029314821573    0.783874943973    0.000161967037
CS    0.092426294136   -1.015018294756   -0.000078207468
