10

 C    0.360973793857    3.109578180742    0.000138792236
 H    0.754460793857    4.122707180742    0.000358792236
 C    0.973006793857    1.859470180742    0.000174792236
 H    2.038713793857    1.640743180742    0.000080792236
 N   -0.994114206143    2.840610180742    0.000126792236
 H   -1.739048206143    3.527260180742    0.000380792236
 C   -1.151920206143    1.476570180742    0.000181792236
 H   -2.129544206143    1.000554180742    0.000055792236
 N    0.026995793857    0.849975180742    0.000170792236
CS    0.093613459339   -1.048856571251   -0.000082725296
