10

 C    0.356335738425    3.241778654279    0.000156442635
 H    0.749822738425    4.254907654279    0.000376442635
 C    0.968368738425    1.991670654279    0.000192442635
 H    2.034075738425    1.772943654279    0.000098442635
 N   -0.998752261575    2.972810654279    0.000144442635
 H   -1.743686261575    3.659460654279    0.000398442635
 C   -1.156558261575    1.608770654279    0.000199442635
 H   -2.134182261575    1.132754654279    0.000073442635
 N    0.022357738425    0.982175654279    0.000188442635
CS    0.095987789747   -1.116533124239   -0.000091760953
