10

 C    0.354016710708    3.307878891048    0.000165267834
 H    0.747503710708    4.321007891048    0.000385267834
 C    0.966049710708    2.057770891048    0.000201267834
 H    2.031756710708    1.839043891048    0.000107267834
 N   -1.001071289292    3.038910891048    0.000153267834
 H   -1.746005289292    3.725560891048    0.000407267834
 C   -1.158877289292    1.674870891048    0.000208267834
 H   -2.136501289292    1.198854891048    0.000082267834
 N    0.020038710708    1.048275891048    0.000197267834
CS    0.097174954951   -1.150371400733   -0.000096278782
