10

 C    0.349378655276    3.440079364585    0.000182918233
 H    0.742865655276    4.453208364585    0.000402918233
 C    0.961411655276    2.189971364585    0.000218918233
 H    2.027118655276    1.971244364585    0.000124918233
 N   -1.005709344724    3.171111364585    0.000170918233
 H   -1.750643344724    3.857761364585    0.000424918233
 C   -1.163515344724    1.807071364585    0.000225918233
 H   -2.141139344724    1.331055364585    0.000099918233
 N    0.015400655276    1.180476364585    0.000214918233
CS    0.099549285359   -1.218047953721   -0.000105314439
