10

 C    0.342421572127    3.638380074890    0.000209393831
 H    0.735908572127    4.651509074890    0.000429393831
 C    0.954454572127    2.388272074890    0.000245393831
 H    2.020161572127    2.169545074890    0.000151393831
 N   -1.012666427873    3.369412074890    0.000197393831
 H   -1.757600427873    4.056062074890    0.000451393831
 C   -1.170472427873    2.005372074890    0.000252393831
 H   -2.148096427873    1.529356074890    0.000126393831
 N    0.008443572127    1.378777074890    0.000241393831
CS    0.103110780971   -1.319562783204   -0.000118867925
