10

 C    0.335464488978    3.836680785196    0.000235869430
 H    0.728951488978    4.849809785196    0.000455869430
 C    0.947497488978    2.586572785196    0.000271869430
 H    2.013204488978    2.367845785196    0.000177869430
 N   -1.019623511022    3.567712785196    0.000223869430
 H   -1.764557511022    4.254362785196    0.000477869430
 C   -1.177429511022    2.203672785196    0.000278869430
 H   -2.155053511022    1.727656785196    0.000152869430
 N    0.001486488978    1.577077785196    0.000267869430
CS    0.106672276582   -1.421077612686   -0.000132421410
