10

 C    0.333145461262    3.902781021965    0.000244694629
 H    0.726632461262    4.915910021965    0.000464694629
 C    0.945178461262    2.652673021965    0.000280694629
 H    2.010885461262    2.433946021965    0.000186694629
 N   -1.021942538738    3.633813021965    0.000232694629
 H   -1.766876538738    4.320463021965    0.000486694629
 C   -1.179748538738    2.269773021965    0.000287694629
 H   -2.157372538738    1.793757021965    0.000161694629
 N   -0.000832538738    1.643178021965    0.000276694629
CS    0.107859441786   -1.454915889181   -0.000136939239
