10

 C    0.326188378113    4.101081732271    0.000271170227
 H    0.719675378113    5.114210732271    0.000491170227
 C    0.938221378113    2.850973732271    0.000307170227
 H    2.003928378113    2.632246732271    0.000213170227
 N   -1.028899621887    3.832113732271    0.000259170227
 H   -1.773833621887    4.518763732271    0.000513170227
 C   -1.186705621887    2.468073732271    0.000314170227
 H   -2.164329621887    1.992057732271    0.000188170227
 N   -0.007789621887    1.841478732271    0.000303170227
CS    0.111420937398   -1.556430718663   -0.000150492725
