10

 C    0.321550322681    4.233282205808    0.000288820626
 H    0.715037322681    5.246411205808    0.000508820626
 C    0.933583322681    2.983174205808    0.000324820626
 H    1.999290322681    2.764447205808    0.000230820626
 N   -1.033537677319    3.964314205808    0.000276820626
 H   -1.778471677319    4.650964205808    0.000530820626
 C   -1.191343677319    2.600274205808    0.000331820626
 H   -2.168967677319    2.124258205808    0.000205820626
 N   -0.012427677319    1.973679205808    0.000320820626
CS    0.113795267805   -1.624107271651   -0.000159528382
