10

 C    0.316912267248    4.365482679345    0.000306471025
 H    0.710399267248    5.378611679345    0.000526471025
 C    0.928945267248    3.115374679345    0.000342471025
 H    1.994652267248    2.896647679345    0.000248471025
 N   -1.038175732752    4.096514679345    0.000294471025
 H   -1.783109732752    4.783164679345    0.000548471025
 C   -1.195981732752    2.732474679345    0.000349471025
 H   -2.173605732752    2.256458679345    0.000223471025
 N   -0.017065732752    2.105879679345    0.000338471025
CS    0.116169598213   -1.691783824640   -0.000168564039
