10

 C    0.312274211816    4.497683152882    0.000324121424
 H    0.705761211816    5.510812152882    0.000544121424
 C    0.924307211816    3.247575152882    0.000360121424
 H    1.990014211816    3.028848152882    0.000266121424
 N   -1.042813788184    4.228715152882    0.000312121424
 H   -1.787747788184    4.915365152882    0.000566121424
 C   -1.200619788184    2.864675152882    0.000367121424
 H   -2.178243788184    2.388659152882    0.000241121424
 N   -0.021703788184    2.238080152882    0.000356121424
CS    0.118543928621   -1.759460377628   -0.000177599696
