10

 C    0.302998100951    4.762084099957    0.000359422222
 H    0.696485100951    5.775213099957    0.000579422222
 C    0.915031100951    3.511976099957    0.000395422222
 H    1.980738100951    3.293249099957    0.000301422222
 N   -1.052089899049    4.493116099957    0.000347422222
 H   -1.797023899049    5.179766099957    0.000601422222
 C   -1.209895899049    3.129076099957    0.000402422222
 H   -2.187519899049    2.653060099957    0.000276422222
 N   -0.030979899049    2.502481099957    0.000391422222
CS    0.123292589436   -1.894813483605   -0.000195671010
