10

 C    0.298360045518    4.894284573494    0.000377072621
 H    0.691847045518    5.907413573494    0.000597072621
 C    0.910393045518    3.644176573494    0.000413072621
 H    1.976100045518    3.425449573494    0.000319072621
 N   -1.056727954482    4.625316573494    0.000365072621
 H   -1.801661954482    5.311966573494    0.000619072621
 C   -1.214533954482    3.261276573494    0.000420072621
 H   -2.192157954482    2.785260573494    0.000294072621
 N   -0.035617954482    2.634681573494    0.000409072621
CS    0.125666919844   -1.962490036593   -0.000204706668
