10

 C    0.291402962370    5.092585283800    0.000403548219
 H    0.684889962370    6.105714283800    0.000623548219
 C    0.903435962370    3.842477283800    0.000439548219
 H    1.969142962370    3.623750283800    0.000345548219
 N   -1.063685037630    4.823617283800    0.000391548219
 H   -1.808619037630    5.510267283800    0.000645548219
 C   -1.221491037630    3.459577283800    0.000446548219
 H   -2.199115037630    2.983561283800    0.000320548219
 N   -0.042575037630    2.832982283800    0.000435548219
CS    0.129228415456   -2.064004866076   -0.000218260153
