10

 C    0.289083934653    5.158685520568    0.000412373418
 H    0.682570934653    6.171814520568    0.000632373418
 C    0.901116934653    3.908577520568    0.000448373418
 H    1.966823934653    3.689850520568    0.000354373418
 N   -1.066004065347    4.889717520568    0.000400373418
 H   -1.810938065347    5.576367520568    0.000654373418
 C   -1.223810065347    3.525677520568    0.000455373418
 H   -2.201434065347    3.049661520568    0.000329373418
 N   -0.044894065347    2.899082520568    0.000444373418
CS    0.130415580660   -2.097843142570   -0.000222777982
