10

 C    0.284445879221    5.290885994105    0.000430023817
 H    0.677932879221    6.304014994105    0.000650023817
 C    0.896478879221    4.040777994105    0.000466023817
 H    1.962185879221    3.822050994105    0.000372023817
 N   -1.070642120779    5.021917994105    0.000418023817
 H   -1.815576120779    5.708567994105    0.000672023817
 C   -1.228448120779    3.657877994105    0.000473023817
 H   -2.206072120779    3.181861994105    0.000347023817
 N   -0.049532120779    3.031282994105    0.000462023817
CS    0.132789911068   -2.165519695558   -0.000231813639
