10

 C    0.265893657491    5.819687888254    0.000500625413
 H    0.659380657491    6.832816888254    0.000720625413
 C    0.877926657491    4.569579888254    0.000536625413
 H    1.943633657491    4.350852888254    0.000442625413
 N   -1.089194342509    5.550719888254    0.000488625413
 H   -1.834128342509    6.237369888254    0.000742625413
 C   -1.247000342509    4.186679888254    0.000543625413
 H   -2.224624342509    3.710663888254    0.000417625413
 N   -0.068084342509    3.560084888254    0.000532625413
CS    0.142287232699   -2.436225907511   -0.000267956268
