10

 C    0.263574629775    5.885788125023    0.000509450612
 H    0.657061629775    6.898917125023    0.000729450612
 C    0.875607629775    4.635680125023    0.000545450612
 H    1.941314629775    4.416953125023    0.000451450612
 N   -1.091513370225    5.616820125023    0.000497450612
 H   -1.836447370225    6.303470125023    0.000751450612
 C   -1.249319370225    4.252780125023    0.000552450612
 H   -2.226943370225    3.776764125023    0.000426450612
 N   -0.070403370225    3.626185125023    0.000541450612
CS    0.143474397902   -2.470064184006   -0.000272474096
