10

 C    0.261255602058    5.951888361791    0.000518275811
 H    0.654742602058    6.965017361791    0.000738275811
 C    0.873288602058    4.701780361791    0.000554275811
 H    1.938995602058    4.483053361791    0.000460275811
 N   -1.093832397942    5.682920361791    0.000506275811
 H   -1.838766397942    6.369570361791    0.000760275811
 C   -1.251638397942    4.318880361791    0.000561275811
 H   -2.229262397942    3.842864361791    0.000435275811
 N   -0.072722397942    3.692285361791    0.000550275811
CS    0.144661563106   -2.503902460500   -0.000276991925
