10

 C    0.256617546626    6.084088835328    0.000535926210
 H    0.650104546626    7.097217835328    0.000755926210
 C    0.868650546626    4.833980835328    0.000571926210
 H    1.934357546626    4.615253835328    0.000477926210
 N   -1.098470453374    5.815120835328    0.000523926210
 H   -1.843404453374    6.501770835328    0.000777926210
 C   -1.256276453374    4.451080835328    0.000578926210
 H   -2.233900453374    3.975064835328    0.000452926210
 N   -0.077360453374    3.824485835328    0.000567926210
CS    0.147035893514   -2.571579013488   -0.000286027582
