10

 C    0.247341435761    6.348489782403    0.000571227008
 H    0.640828435761    7.361618782403    0.000791227008
 C    0.859374435761    5.098381782403    0.000607227008
 H    1.925081435761    4.879654782403    0.000513227008
 N   -1.107746564239    6.079521782403    0.000559227008
 H   -1.852680564239    6.766171782403    0.000813227008
 C   -1.265552564239    4.715481782403    0.000614227008
 H   -2.243176564239    4.239465782403    0.000488227008
 N   -0.086636564239    4.088886782403    0.000603227008
CS    0.151784554330   -2.706932119465   -0.000304098896
