10

 C    0.238065324896    6.612890729477    0.000606527806
 H    0.631552324896    7.626019729477    0.000826527806
 C    0.850098324896    5.362782729477    0.000642527806
 H    1.915805324896    5.144055729477    0.000548527806
 N   -1.117022675104    6.343922729477    0.000594527806
 H   -1.861956675104    7.030572729477    0.000848527806
 C   -1.274828675104    4.979882729477    0.000649527806
 H   -2.252452675104    4.503866729477    0.000523527806
 N   -0.095912675104    4.353287729477    0.000638527806
CS    0.156533215145   -2.842285225441   -0.000322170211
