10

 C    0.235746297180    6.678990966246    0.000615353005
 H    0.629233297180    7.692119966246    0.000835353005
 C    0.847779297180    5.428882966246    0.000651353005
 H    1.913486297180    5.210155966246    0.000557353005
 N   -1.119341702820    6.410022966246    0.000603353005
 H   -1.864275702820    7.096672966246    0.000857353005
 C   -1.277147702820    5.045982966246    0.000658353005
 H   -2.254771702820    4.569966966246    0.000532353005
 N   -0.098231702820    4.419387966246    0.000647353005
CS    0.157720380349   -2.876123501936   -0.000326688039
