10

 C    0.228789214031    6.877291676552    0.000641828603
 H    0.622276214031    7.890420676552    0.000861828603
 C    0.840822214031    5.627183676552    0.000677828603
 H    1.906529214031    5.408456676552    0.000583828603
 N   -1.126298785969    6.608323676552    0.000629828603
 H   -1.871232785969    7.294973676552    0.000883828603
 C   -1.284104785969    5.244283676552    0.000684828603
 H   -2.261728785969    4.768267676552    0.000558828603
 N   -0.105188785969    4.617688676552    0.000673828603
CS    0.161281875961   -2.977638331418   -0.000340241525
