10

 C    0.221832130882    7.075592386857    0.000668304202
 H    0.615319130882    8.088721386857    0.000888304202
 C    0.833865130882    5.825484386857    0.000704304202
 H    1.899572130882    5.606757386857    0.000610304202
 N   -1.133255869118    6.806624386857    0.000656304202
 H   -1.878189869118    7.493274386857    0.000910304202
 C   -1.291061869118    5.442584386857    0.000711304202
 H   -2.268685869118    4.966568386857    0.000585304202
 N   -0.112145869118    4.815989386857    0.000700304202
CS    0.164843371572   -3.079153160901   -0.000353795011
