10

 C    0.217194075450    7.207792860395    0.000685954601
 H    0.610681075450    8.220921860395    0.000905954601
 C    0.829227075450    5.957684860395    0.000721954601
 H    1.894934075450    5.738957860395    0.000627954601
 N   -1.137893924550    6.938824860395    0.000673954601
 H   -1.882827924550    7.625474860395    0.000927954601
 C   -1.295699924550    5.574784860395    0.000728954601
 H   -2.273323924550    5.098768860395    0.000602954601
 N   -0.116783924550    4.948189860395    0.000717954601
CS    0.167217701980   -3.146829713889   -0.000362830668
