10

 C    0.214875047733    7.273893097163    0.000694779800
 H    0.608362047733    8.287022097163    0.000914779800
 C    0.826908047733    6.023785097163    0.000730779800
 H    1.892615047733    5.805058097163    0.000636779800
 N   -1.140212952267    7.004925097163    0.000682779800
 H   -1.885146952267    7.691575097163    0.000936779800
 C   -1.298018952267    5.640885097163    0.000737779800
 H   -2.275642952267    5.164869097163    0.000611779800
 N   -0.119102952267    5.014290097163    0.000726779800
CS    0.168404867184   -3.180667990383   -0.000367348496
