10

 C    0.210236992301    7.406093570700    0.000712430199
 H    0.603723992301    8.419222570700    0.000932430199
 C    0.822269992301    6.155985570700    0.000748430199
 H    1.887976992301    5.937258570700    0.000654430199
 N   -1.144851007699    7.137125570700    0.000700430199
 H   -1.889785007699    7.823775570700    0.000954430199
 C   -1.302657007699    5.773085570700    0.000755430199
 H   -2.280281007699    5.297069570700    0.000629430199
 N   -0.123741007699    5.146490570700    0.000744430199
CS    0.170779197592   -3.248344543371   -0.000376384153
