10

 C    0.203279909152    7.604394281006    0.000738905797
 H    0.596766909152    8.617523281006    0.000958905797
 C    0.815312909152    6.354286281006    0.000774905797
 H    1.881019909152    6.135559281006    0.000680905797
 N   -1.151808090848    7.335426281006    0.000726905797
 H   -1.896742090848    8.022076281006    0.000980905797
 C   -1.309614090848    5.971386281006    0.000781905797
 H   -2.287238090848    5.495370281006    0.000655905797
 N   -0.130698090848    5.344791281006    0.000770905797
CS    0.174340693203   -3.349859372854   -0.000389937639
