10

 C    0.191684770571    7.934895464849    0.000783031794
 H    0.585171770571    8.948024464849    0.001003031794
 C    0.803717770571    6.684787464849    0.000819031794
 H    1.869424770571    6.466060464849    0.000725031794
 N   -1.163403229429    7.665927464849    0.000771031794
 H   -1.908337229429    8.352577464849    0.001025031794
 C   -1.321209229429    6.301887464849    0.000826031794
 H   -2.298833229429    5.825871464849    0.000700031794
 N   -0.142293229429    5.675292464849    0.000815031794
CS    0.180276519223   -3.519050755325   -0.000412526782
