10

 C    0.187046715139    8.067095938386    0.000800682193
 H    0.580533715139    9.080224938386    0.001020682193
 C    0.799079715139    6.816987938386    0.000836682193
 H    1.864786715139    6.598260938386    0.000742682193
 N   -1.168041284861    7.798127938386    0.000788682193
 H   -1.912975284861    8.484777938386    0.001042682193
 C   -1.325847284861    6.434087938386    0.000843682193
 H   -2.303471284861    5.958071938386    0.000717682193
 N   -0.146931284861    5.807492938386    0.000832682193
CS    0.182650849631   -3.586727308313   -0.000421562439
