10

 C    0.184727687422    8.133196175155    0.000809507393
 H    0.578214687422    9.146325175155    0.001029507393
 C    0.796760687422    6.883088175155    0.000845507393
 H    1.862467687422    6.664361175155    0.000751507393
 N   -1.170360312578    7.864228175155    0.000797507393
 H   -1.915294312578    8.550878175155    0.001051507393
 C   -1.328166312578    6.500188175155    0.000852507393
 H   -2.305790312578    6.024172175155    0.000726507393
 N   -0.149250312578    5.873593175155    0.000841507393
CS    0.183838014834   -3.620565584807   -0.000426080268
