10

 C    0.175451576557    8.397597122229    0.000844808190
 H    0.568938576557    9.410726122229    0.001064808190
 C    0.787484576557    7.147489122229    0.000880808190
 H    1.853191576557    6.928762122229    0.000786808190
 N   -1.179636423443    8.128629122229    0.000832808190
 H   -1.924570423443    8.815279122229    0.001086808190
 C   -1.337442423443    6.764589122229    0.000887808190
 H   -2.315066423443    6.288573122229    0.000761808190
 N   -0.158526423443    6.137994122229    0.000876808190
CS    0.188586675650   -3.755918690784   -0.000444151582
