16

 N   -2.769674477714    0.466144945703   -0.018032340304
 C   -1.537548745447   -0.164145334305   -0.017077379996
 N   -1.267407809321   -1.485030809273   -0.020541568943
 C    0.060721359142   -1.703224702023   -0.004974140280
 H    0.374529642112   -2.749903434513   -0.001594569589
 N    1.073070802183   -0.795243744882    0.008997129995
 C    0.760854058276    0.515577338367    0.004350726095
 N    1.768481013078    1.440075975672   -0.037471110836
 H    2.699932550465    1.109545866920    0.184986823297
 H    1.535743507051    2.400046730711    0.187339134604
 C   -0.604646782598    0.892271192234   -0.004420361620
 N   -1.228176093789    2.131236892864    0.005457847398
 C   -2.528101580946    1.823157504503   -0.002997005760
 H   -3.338155109733    2.549738305605    0.001051132103
 H   -3.673464154884    0.005887821869   -0.025635396237
 K    2.118489611193   -1.137234132760    0.020917212489
