16

 N   -2.812233653331    0.480067431937   -0.018517608868
 C   -1.580107921064   -0.150222848071   -0.017562648560
 N   -1.309966984938   -1.471108323039   -0.021026837507
 C    0.018162183525   -1.689302215789   -0.005459408844
 H    0.331970466495   -2.735980948279   -0.002079838153
 N    1.030511626566   -0.781321258648    0.008511861431
 C    0.718294882659    0.529499824601    0.003865457531
 N    1.725921837461    1.453998461906   -0.037956379400
 H    2.657373374848    1.123468353154    0.184501554733
 H    1.493184331434    2.413969216945    0.186853866040
 C   -0.647205958215    0.906193678468   -0.004905630184
 N   -1.270735269406    2.145159379098    0.004972578834
 C   -2.570660756563    1.837079990737   -0.003482274324
 H   -3.380714285350    2.563660791839    0.000565863539
 H   -3.716023330501    0.019810308103   -0.026120664801
 K    2.266006582669   -1.185491717050    0.022599231651
