16

 N   -2.876072416756    0.500951161287   -0.019245511714
 C   -1.643946684489   -0.129339118721   -0.018290551406
 N   -1.373805748363   -1.450224593689   -0.021754740353
 C   -0.045676579900   -1.668418486439   -0.006187311690
 H    0.268131703070   -2.715097218929   -0.002807740999
 N    0.966672863141   -0.760437529298    0.007783958585
 C    0.654456119234    0.550383553951    0.003137554685
 N    1.662083074036    1.474882191256   -0.038684282246
 H    2.593534611423    1.144352082504    0.183773651887
 H    1.429345568009    2.434852946295    0.186125963194
 C   -0.711044721640    0.927077407818   -0.005633533030
 N   -1.334574032831    2.166043108448    0.004244675988
 C   -2.634499519988    1.857963720087   -0.004210177170
 H   -3.444553048775    2.584544521189   -0.000162039307
 H   -3.779862093926    0.040694037453   -0.026848567647
 K    2.487282039883   -1.257878093484    0.025122260394
