16

 N   -4.663557792664    1.085695583106   -0.039626791403
 C   -3.431432060397    0.455405303098   -0.038671831095
 N   -3.161291124271   -0.865480171870   -0.042136020042
 C   -1.833161955808   -1.083674064620   -0.026568591379
 H   -1.519353672838   -2.130352797110   -0.023189020688
 N   -0.820812512767   -0.175693107479   -0.012597321104
 C   -1.133029256674    1.135127975770   -0.017243725004
 N   -0.125402301872    2.059626613075   -0.059065561935
 H    0.806049235515    1.729096504323    0.163392372198
 H   -0.358139807899    3.019597368114    0.165744683505
 C   -2.498530097548    1.511821829637   -0.026014812719
 N   -3.122059408739    2.750787530267   -0.016136603701
 C   -4.421984895896    2.442708141906   -0.024591456859
 H   -5.232038424683    3.169288943008   -0.020543318996
 H   -5.567347469834    0.625438459272   -0.047229847336
 K    8.682994841872   -3.284696633643    0.095767065208
