16

 N   -2.961190767990    0.528796133755   -0.020216048842
 C   -1.729065035723   -0.101494146253   -0.019261088534
 N   -1.458924099597   -1.422379621221   -0.022725277481
 C   -0.130794931134   -1.640573513971   -0.007157848818
 H    0.183013351836   -2.687252246461   -0.003778278127
 N    0.881554511907   -0.732592556830    0.006813421457
 C    0.569337768000    0.578228526419    0.002167017557
 N    1.576964722802    1.502727163724   -0.039654819374
 H    2.508416260189    1.172197054972    0.182803114759
 H    1.344227216775    2.462697918763    0.185155426066
 C   -0.796163072874    0.954922380286   -0.006604070158
 N   -1.419692384065    2.193888080916    0.003274138860
 C   -2.719617871222    1.885808692555   -0.005180714298
 H   -3.529671400009    2.612389493657   -0.001132576435
 H   -3.864980445160    0.068539009921   -0.027819104775
 K    2.782315982835   -1.354393262063    0.028486298719
