16

 N   -2.982470355798    0.535757376872   -0.020458683124
 C   -1.750344623531   -0.094532903136   -0.019503722816
 N   -1.480203687405   -1.415418378104   -0.022967911763
 C   -0.152074518942   -1.633612270854   -0.007400483100
 H    0.161733764028   -2.680291003344   -0.004020912409
 N    0.860274924099   -0.725631313713    0.006570787175
 C    0.548058180192    0.585189769536    0.001924383275
 N    1.555685134994    1.509688406841   -0.039897453656
 H    2.487136672381    1.179158298089    0.182560480477
 H    1.322947628967    2.469659161880    0.184912791784
 C   -0.817442660682    0.961883623403   -0.006846704440
 N   -1.440971971873    2.200849324033    0.003031504578
 C   -2.740897459030    1.892769935672   -0.005423348580
 H   -3.550950987817    2.619350736774   -0.001375210717
 H   -3.886260032968    0.075500253038   -0.028061739057
 K    2.856074468573   -1.378522054208    0.029327308300
