16

 N   -3.003749943607    0.542718619989   -0.020701317407
 C   -1.771624211340   -0.087571660019   -0.019746357099
 N   -1.501483275214   -1.408457134987   -0.023210546046
 C   -0.173354106751   -1.626651027737   -0.007643117383
 H    0.140454176219   -2.673329760227   -0.004263546692
 N    0.838995336290   -0.718670070596    0.006328152892
 C    0.526778592383    0.592151012653    0.001681748992
 N    1.534405547185    1.516649649958   -0.040140087939
 H    2.465857084572    1.186119541206    0.182317846194
 H    1.301668041158    2.476620404997    0.184670157501
 C   -0.838722248491    0.968844866520   -0.007089338723
 N   -1.462251559682    2.207810567150    0.002788870295
 C   -2.762177046839    1.899731178789   -0.005665982863
 H   -3.572230575626    2.626311979891   -0.001617845000
 H   -3.907539620777    0.082461496155   -0.028304373340
 K    2.929832954311   -1.402650846353    0.030168317881
