16

 N   -3.110147882649    0.577524835573   -0.021914488817
 C   -1.878022150382   -0.052765444435   -0.020959528509
 N   -1.607881214256   -1.373650919403   -0.024423717456
 C   -0.279752045793   -1.591844812153   -0.008856288793
 H    0.034056237177   -2.638523544643   -0.005476718102
 N    0.732597397248   -0.683863855012    0.005114981482
 C    0.420380653341    0.626957228237    0.000468577582
 N    1.428007608143    1.551455865542   -0.041353259349
 H    2.359459145530    1.220925756790    0.181104674784
 H    1.195270102116    2.511426620581    0.183456986091
 C   -0.945120187533    1.003651082104   -0.008302510133
 N   -1.568649498724    2.242616782734    0.001575698885
 C   -2.868574985881    1.934537394373   -0.006879154273
 H   -3.678628514668    2.661118195475   -0.002831016410
 H   -4.013937559819    0.117267711739   -0.029517544750
 K    3.298625383001   -1.523294807076    0.034373365787
