16

 N   -3.131427470457    0.584486078690   -0.022157123099
 C   -1.899301738190   -0.045804201318   -0.021202162791
 N   -1.629160802064   -1.366689676286   -0.024666351738
 C   -0.301031633601   -1.584883569036   -0.009098923075
 H    0.012776649369   -2.631562301526   -0.005719352384
 N    0.711317809440   -0.676902611895    0.004872347200
 C    0.399101065533    0.633918471354    0.000225943300
 N    1.406728020335    1.558417108659   -0.041595893631
 H    2.338179557722    1.227886999907    0.180862040502
 H    1.173990514308    2.518387863698    0.183214351809
 C   -0.966399775341    1.010612325221   -0.008545144415
 N   -1.589929086532    2.249578025851    0.001333064603
 C   -2.889854573689    1.941498637490   -0.007121788555
 H   -3.699908102476    2.668079438592   -0.003073650692
 H   -4.035217147627    0.124228954856   -0.029760179032
 K    3.372383868738   -1.547423599221    0.035214375368
