16

 N   -3.195266233883    0.605369808041   -0.022885025945
 C   -1.963140501616   -0.024920471967   -0.021930065637
 N   -1.692999565490   -1.345805946935   -0.025394254584
 C   -0.364870397027   -1.563999839685   -0.009826825921
 H   -0.051062114057   -2.610678572175   -0.006447255230
 N    0.647479046014   -0.656018882544    0.004144444354
 C    0.335262302107    0.654802200705   -0.000501959546
 N    1.342889256909    1.579300838010   -0.042323796477
 H    2.274340794296    1.248770729258    0.180134137656
 H    1.110151750882    2.539271593049    0.182486448963
 C   -1.030238538767    1.031496054572   -0.009273047261
 N   -1.653767849958    2.270461755202    0.000605161757
 C   -2.953693337115    1.962382366841   -0.007849691401
 H   -3.763746865902    2.688963167943   -0.003801553538
 H   -4.099055911053    0.145112684207   -0.030488081878
 K    3.593659325952   -1.619809975655    0.037737404111
