16

 N   -3.344223348541    0.654098509859   -0.024583465919
 C   -2.112097616274    0.023808229851   -0.023628505611
 N   -1.841956680148   -1.297077245117   -0.027092694558
 C   -0.513827511685   -1.515271137867   -0.011525265895
 H   -0.200019228715   -2.561949870357   -0.008145695204
 N    0.498521931356   -0.607290180726    0.002446004380
 C    0.186305187449    0.703530902523   -0.002200399520
 N    1.193932142251    1.628029539828   -0.044022236451
 H    2.125383679638    1.297499431076    0.178435697682
 H    0.961194636224    2.588000294867    0.180788008989
 C   -1.179195653425    1.080224756390   -0.010971487235
 N   -1.802724964616    2.319190457020   -0.001093278217
 C   -3.102650451773    2.011111068659   -0.009548131375
 H   -3.912703980560    2.737691869761   -0.005499993512
 H   -4.248013025711    0.193841386025   -0.032186521852
 K    4.109968726118   -1.788711520669    0.043624471179
