16

 N   -3.429341699775    0.681943482326   -0.025554003047
 C   -2.197215967508    0.051653202318   -0.024599042739
 N   -1.927075031382   -1.269232272650   -0.028063231686
 C   -0.598945862919   -1.487426165400   -0.012495803023
 H   -0.285137579949   -2.534104897890   -0.009116232332
 N    0.413403580122   -0.579445208259    0.001475467252
 C    0.101186836215    0.731375874990   -0.003170936648
 N    1.108813791017    1.655874512295   -0.044992773579
 H    2.040265328404    1.325344403543    0.177465160554
 H    0.876076284990    2.615845267334    0.179817471861
 C   -1.264314004659    1.108069728857   -0.011942024363
 N   -1.887843315850    2.347035429487   -0.002063815345
 C   -3.187768803007    2.038956041126   -0.010518668503
 H   -3.997822331794    2.765536842228   -0.006470530640
 H   -4.333131376945    0.221686358492   -0.033157058980
 K    4.405002669070   -1.885226689248    0.046988509503
