16

 N   -3.514460051009    0.709788454794   -0.026524540175
 C   -2.282334318742    0.079498174786   -0.025569579867
 N   -2.012193382616   -1.241387300182   -0.029033768814
 C   -0.684064214153   -1.459581192932   -0.013466340151
 H   -0.370255931183   -2.506259925422   -0.010086769460
 N    0.328285228888   -0.551600235791    0.000504930124
 C    0.016068484981    0.759220847458   -0.004141473776
 N    1.023695439783    1.683719484763   -0.045963310707
 H    1.955146977170    1.353189376011    0.176494623426
 H    0.790957933756    2.643690239802    0.178846934733
 C   -1.349432355893    1.135914701325   -0.012912561491
 N   -1.972961667084    2.374880401955   -0.003034352473
 C   -3.272887154241    2.066801013594   -0.011489205631
 H   -4.082940683028    2.793381814696   -0.007441067768
 H   -4.418249728179    0.249531330960   -0.034127596108
 K    4.700036612022   -1.981741857827    0.050352547828
