16

 N   -3.620857990051    0.744594670378   -0.027737711585
 C   -2.388732257784    0.114304390370   -0.026782751277
 N   -2.118591321658   -1.206581084598   -0.030246940224
 C   -0.790462153195   -1.424774977348   -0.014679511561
 H   -0.476653870225   -2.471453709838   -0.011299940870
 N    0.221887289846   -0.516794020207   -0.000708241286
 C   -0.090329454061    0.794027063042   -0.005354645186
 N    0.917297500741    1.718525700347   -0.047176482117
 H    1.848749038128    1.387995591595    0.175281452016
 H    0.684559994714    2.678496455386    0.177633763323
 C   -1.455830294935    1.170720916909   -0.014125732901
 N   -2.079359606126    2.409686617539   -0.004247523883
 C   -3.379285093283    2.101607229178   -0.012702377041
 H   -4.189338622070    2.828188030280   -0.008654239178
 H   -4.524647667221    0.284337546544   -0.035340767518
 K    5.068829040712   -2.102385818550    0.054557595733
