16

 N   -3.642137577859    0.751555913495   -0.027980345867
 C   -2.410011845592    0.121265633487   -0.027025385559
 N   -2.139870909466   -1.199619841481   -0.030489574506
 C   -0.811741741003   -1.417813734231   -0.014922145843
 H   -0.497933458033   -2.464492466721   -0.011542575152
 N    0.200607702038   -0.509832777090   -0.000950875568
 C   -0.111609041869    0.800988306159   -0.005597279468
 N    0.896017912933    1.725486943464   -0.047419116399
 H    1.827469450320    1.394956834712    0.175038817734
 H    0.663280406906    2.685457698503    0.177391129041
 C   -1.477109882743    1.177682160026   -0.014368367183
 N   -2.100639193934    2.416647860656   -0.004490158165
 C   -3.400564681091    2.108568472295   -0.012945011323
 H   -4.210618209878    2.835149273397   -0.008896873460
 H   -4.545927255029    0.291298789661   -0.035583401800
 K    5.142587526450   -2.126514610695    0.055398605315
