16

 N   -3.684696753476    0.765478399729   -0.028465614431
 C   -2.452571021209    0.135188119721   -0.027510654123
 N   -2.182430085083   -1.185697355247   -0.030974843070
 C   -0.854300916620   -1.403891247997   -0.015407414407
 H   -0.540492633650   -2.450569980487   -0.012027843716
 N    0.158048526421   -0.495910290856   -0.001436144132
 C   -0.154168217486    0.814910792393   -0.006082548032
 N    0.853458737316    1.739409429698   -0.047904384963
 H    1.784910274703    1.408879320946    0.174553549170
 H    0.620721231289    2.699380184737    0.176905860477
 C   -1.519669058360    1.191604646260   -0.014853635747
 N   -2.143198369551    2.430570346890   -0.004975426729
 C   -3.443123856708    2.122490958529   -0.013430279887
 H   -4.253177385495    2.849071759631   -0.009382142024
 H   -4.588486430646    0.305221275895   -0.036068670364
 K    5.290104497925   -2.174772194985    0.057080624477
