16

 N   -3.705976341285    0.772439642846   -0.028708248713
 C   -2.473850609018    0.142149362838   -0.027753288405
 N   -2.203709672892   -1.178736112130   -0.031217477352
 C   -0.875580504429   -1.396930004880   -0.015650048689
 H   -0.561772221459   -2.443608737370   -0.012270477998
 N    0.136768938612   -0.488949047739   -0.001678778414
 C   -0.175447805295    0.821872035510   -0.006325182314
 N    0.832179149507    1.746370672815   -0.048147019245
 H    1.763630686894    1.415840564063    0.174310914888
 H    0.599441643480    2.706341427854    0.176663226195
 C   -1.540948646169    1.198565889377   -0.015096270029
 N   -2.164477957360    2.437531590007   -0.005218061011
 C   -3.464403444517    2.129452201646   -0.013672914169
 H   -4.274456973304    2.856033002748   -0.009624776306
 H   -4.609766018455    0.312182519012   -0.036311304646
 K    5.363862983663   -2.198900987129    0.057921634058
