16

 N   -3.727255929093    0.779400885963   -0.028950882995
 C   -2.495130196826    0.149110605955   -0.027995922687
 N   -2.224989260700   -1.171774869013   -0.031460111634
 C   -0.896860092237   -1.389968761763   -0.015892682971
 H   -0.583051809267   -2.436647494253   -0.012513112280
 N    0.115489350804   -0.481987804622   -0.001921412696
 C   -0.196727393103    0.828833278627   -0.006567816596
 N    0.810899561699    1.753331915932   -0.048389653527
 H    1.742351099086    1.422801807180    0.174068280606
 H    0.578162055672    2.713302670971    0.176420591913
 C   -1.562228233977    1.205527132494   -0.015338904311
 N   -2.185757545168    2.444492833124   -0.005460695293
 C   -3.485683032325    2.136413444763   -0.013915548451
 H   -4.295736561112    2.862994245865   -0.009867410588
 H   -4.631045606263    0.319143762129   -0.036553938928
 K    5.437621469401   -2.223029779274    0.058762643639
