16

 N   -3.812374280327    0.807245858430   -0.029921420123
 C   -2.580248548060    0.176955578422   -0.028966459815
 N   -2.310107611934   -1.143929896546   -0.032430648762
 C   -0.981978443471   -1.362123789296   -0.016863220099
 H   -0.668170160501   -2.408802521786   -0.013483649408
 N    0.030370999570   -0.454142832155   -0.002891949824
 C   -0.281845744337    0.856678251094   -0.007538353724
 N    0.725781210465    1.781176888399   -0.049360190655
 H    1.657232747852    1.450646779647    0.173097743478
 H    0.493043704438    2.741147643438    0.175450054785
 C   -1.647346585211    1.233372104961   -0.016309441439
 N   -2.270875896402    2.472337805591   -0.006431232421
 C   -3.570801383559    2.164258417230   -0.014886085579
 H   -4.380854912346    2.890839218332   -0.010837947716
 H   -4.716163957497    0.346988734596   -0.037524476056
 K    5.732655412353   -2.319544947853    0.062126681963
