16

 N   -3.982610982794    0.862935803365   -0.031862494379
 C   -2.750485250527    0.232645523357   -0.030907534071
 N   -2.480344314401   -1.088239951611   -0.034371723018
 C   -1.152215145938   -1.306433844361   -0.018804294355
 H   -0.838406862968   -2.353112576851   -0.015424723664
 N   -0.139865702897   -0.398452887220   -0.004833024080
 C   -0.452082446804    0.912368196029   -0.009479427980
 N    0.555544507998    1.836866833334   -0.051301264911
 H    1.486996045385    1.506336724582    0.171156669222
 H    0.322807001971    2.796837588373    0.173508980529
 C   -1.817583287678    1.289062049896   -0.018250515695
 N   -2.441112598869    2.528027750526   -0.008372306677
 C   -3.741038086026    2.219948362165   -0.016827159835
 H   -4.551091614813    2.946529163267   -0.012779021972
 H   -4.886400659964    0.402678679531   -0.039465550312
 K    6.322723298257   -2.512575285011    0.068854758612
