16

 N   -4.067729334028    0.890780775833   -0.032833031507
 C   -2.835603601761    0.260490495825   -0.031878071199
 N   -2.565462665635   -1.060394979143   -0.035342260146
 C   -1.237333497172   -1.278588871893   -0.019774831483
 H   -0.923525214202   -2.325267604383   -0.016395260792
 N   -0.224984054131   -0.370607914752   -0.005803561208
 C   -0.537200798038    0.940213168497   -0.010449965108
 N    0.470426156764    1.864711805802   -0.052271802039
 H    1.401877694151    1.534181697050    0.170186132094
 H    0.237688650737    2.824682560841    0.172538443401
 C   -1.902701638912    1.316907022364   -0.019221052823
 N   -2.526230950103    2.555872722994   -0.009342843805
 C   -3.826156437260    2.247793334633   -0.017797696963
 H   -4.636209966047    2.974374135735   -0.013749559100
 H   -4.971519011198    0.430523651999   -0.040436087440
 K    6.617757241209   -2.609090453590    0.072218796937
