16

 N   -4.089008921836    0.897742018950   -0.033075665789
 C   -2.856883189569    0.267451738942   -0.032120705481
 N   -2.586742253443   -1.053433736026   -0.035584894428
 C   -1.258613084980   -1.271627628776   -0.020017465765
 H   -0.944804802010   -2.318306361266   -0.016637895074
 N   -0.246263641939   -0.363646671635   -0.006046195490
 C   -0.558480385846    0.947174411614   -0.010692599390
 N    0.449146568956    1.871673048919   -0.052514436321
 H    1.380598106343    1.541142940167    0.169943497812
 H    0.216409062929    2.831643803958    0.172295809119
 C   -1.923981226720    1.323868265481   -0.019463687105
 N   -2.547510537911    2.562833966111   -0.009585478087
 C   -3.847436025068    2.254754577750   -0.018040331245
 H   -4.657489553855    2.981335378852   -0.013992193382
 H   -4.992798599006    0.437484895116   -0.040678721722
 K    6.691515726947   -2.633219245735    0.073059806518
