16

 N   -4.195406860878    0.932548234534   -0.034288837199
 C   -2.963281128611    0.302257954526   -0.033333876891
 N   -2.693140192485   -1.018627520442   -0.036798065838
 C   -1.365011024022   -1.236821413192   -0.021230637175
 H   -1.051202741052   -2.283500145682   -0.017851066484
 N   -0.352661580981   -0.328840456051   -0.007259366900
 C   -0.664878324888    0.981980627198   -0.011905770800
 N    0.342748629914    1.906479264503   -0.053727607731
 H    1.274200167301    1.575949155751    0.168730326402
 H    0.110011123887    2.866450019542    0.171082637709
 C   -2.030379165762    1.358674481065   -0.020676858515
 N   -2.653908476953    2.597640181695   -0.010798649497
 C   -3.953833964110    2.289560793334   -0.019253502655
 H   -4.763887492897    3.016141594436   -0.015205364792
 H   -5.099196538048    0.472291110700   -0.041891893132
 K    7.060308155637   -2.753863206459    0.077264854423
