16

 N   -4.259245624304    0.953431963885   -0.035016740045
 C   -3.027119892037    0.323141683877   -0.034061779737
 N   -2.756978955911   -0.997743791091   -0.037525968684
 C   -1.428849787448   -1.215937683841   -0.021958540021
 H   -1.115041504478   -2.262616416331   -0.018578969330
 N   -0.416500344407   -0.307956726700   -0.007987269746
 C   -0.728717088314    1.002864356549   -0.012633673646
 N    0.278909866488    1.927362993854   -0.054455510577
 H    1.210361403875    1.596832885102    0.168002423556
 H    0.046172360461    2.887333748893    0.170354734863
 C   -2.094217929188    1.379558210416   -0.021404761361
 N   -2.717747240379    2.618523911046   -0.011526552343
 C   -4.017672727536    2.310444522685   -0.019981405501
 H   -4.827726256323    3.037025323787   -0.015933267638
 H   -5.163035301474    0.493174840051   -0.042619795978
 K    7.281583612850   -2.826249582893    0.079787883167
