16

 N   -4.323084387729    0.974315693236   -0.035744642891
 C   -3.090958655462    0.344025413228   -0.034789682583
 N   -2.820817719336   -0.976860061740   -0.038253871530
 C   -1.492688550873   -1.195053954490   -0.022686442867
 H   -1.178880267903   -2.241732686980   -0.019306872176
 N   -0.480339107832   -0.287072997349   -0.008715172592
 C   -0.792555851739    1.023748085900   -0.013361576492
 N    0.215071103063    1.948246723205   -0.055183413423
 H    1.146522640450    1.617716614453    0.167274520710
 H   -0.017666402964    2.908217478244    0.169626832017
 C   -2.158056692613    1.400441939767   -0.022132664207
 N   -2.781586003804    2.639407640397   -0.012254455189
 C   -4.081511490961    2.331328252036   -0.020709308347
 H   -4.891565019748    3.057909053138   -0.016661170484
 H   -5.226874064899    0.514058569402   -0.043347698824
 K    7.502859070064   -2.898635959327    0.082310911910
