16

 N   -4.365643563346    0.988238179469   -0.036229911455
 C   -3.133517831079    0.357947899461   -0.035274951147
 N   -2.863376894953   -0.962937575507   -0.038739140094
 C   -1.535247726490   -1.181131468257   -0.023171711431
 H   -1.221439443520   -2.227810200747   -0.019792140740
 N   -0.522898283449   -0.273150511116   -0.009200441156
 C   -0.835115027356    1.037670572133   -0.013846845056
 N    0.172511927446    1.962169209438   -0.055668681987
 H    1.103963464833    1.631639100686    0.166789252146
 H   -0.060225578581    2.922139964477    0.169141563453
 C   -2.200615868230    1.414364426000   -0.022617932771
 N   -2.824145179421    2.653330126630   -0.012739723753
 C   -4.124070666578    2.345250738269   -0.021194576911
 H   -4.934124195365    3.071831539371   -0.017146439048
 H   -5.269433240516    0.527981055635   -0.043832967388
 K    7.650376041540   -2.946893543617    0.083992931072
