16

 N   -4.493321090196    1.030005638171   -0.037685717147
 C   -3.261195357929    0.399715358163   -0.036730756839
 N   -2.991054421803   -0.921170116805   -0.040194945786
 C   -1.662925253340   -1.139364009555   -0.024627517123
 H   -1.349116970370   -2.186042742045   -0.021247946432
 N   -0.650575810299   -0.231383052414   -0.010656246848
 C   -0.962792554206    1.079438030835   -0.015302650748
 N    0.044834400596    2.003936668140   -0.057124487679
 H    0.976285937983    1.673406559388    0.165333446454
 H   -0.187903105431    2.963907423179    0.167685757761
 C   -2.328293395080    1.456131884702   -0.024073738463
 N   -2.951822706271    2.695097585332   -0.014195529445
 C   -4.251748193428    2.387018196971   -0.022650382603
 H   -5.061801722215    3.113598998073   -0.018602244740
 H   -5.397110767366    0.569748514337   -0.045288773080
 K    8.092926955968   -3.091666296485    0.089038988559
