16

 N   -4.514600678005    1.036966881288   -0.037928351429
 C   -3.282474945738    0.406676601280   -0.036973391121
 N   -3.012334009612   -0.914208873688   -0.040437580068
 C   -1.684204841149   -1.132402766438   -0.024870151405
 H   -1.370396558179   -2.179081498928   -0.021490580714
 N   -0.671855398108   -0.224421809297   -0.010898881130
 C   -0.984072142015    1.086399273952   -0.015545285030
 N    0.023554812787    2.010897911257   -0.057367121961
 H    0.955006350174    1.680367802505    0.165090812172
 H   -0.209182693240    2.970868666296    0.167443123479
 C   -2.349572982889    1.463093127819   -0.024316372745
 N   -2.973102294080    2.702058828449   -0.014438163727
 C   -4.273027781237    2.393979440088   -0.022893016885
 H   -5.083081310024    3.120560241190   -0.018844879022
 H   -5.418390355175    0.576709757454   -0.045531407362
 K    8.166685441706   -3.115795088630    0.089879998140
