16

 N   -4.535880265813    1.043928124405   -0.038170985711
 C   -3.303754533546    0.413637844397   -0.037216025403
 N   -3.033613597420   -0.907247630571   -0.040680214350
 C   -1.705484428957   -1.125441523321   -0.025112785687
 H   -1.391676145987   -2.172120255811   -0.021733214996
 N   -0.693134985916   -0.217460566180   -0.011141515412
 C   -1.005351729823    1.093360517069   -0.015787919312
 N    0.002275224979    2.017859154374   -0.057609756243
 H    0.933726762366    1.687329045622    0.164848177890
 H   -0.230462281048    2.977829909413    0.167200489197
 C   -2.370852570697    1.470054370936   -0.024559007027
 N   -2.994381881888    2.709020071566   -0.014680798009
 C   -4.294307369045    2.400940683205   -0.023135651167
 H   -5.104360897832    3.127521484307   -0.019087513304
 H   -5.439669942983    0.583671000571   -0.045774041644
 K    8.240443927444   -3.139923880775    0.090721007721
