16

 N   -4.578439441430    1.057850610638   -0.038656254275
 C   -3.346313709163    0.427560330630   -0.037701293967
 N   -3.076172773037   -0.893325144338   -0.041165482914
 C   -1.748043604574   -1.111519037088   -0.025598054251
 H   -1.434235321604   -2.158197769578   -0.022218483560
 N   -0.735694161533   -0.203538079947   -0.011626783976
 C   -1.047910905440    1.107283003302   -0.016273187876
 N   -0.040283950638    2.031781640607   -0.058095024807
 H    0.891167586749    1.701251531855    0.164362909326
 H   -0.273021456665    2.991752395646    0.166715220633
 C   -2.413411746314    1.483976857169   -0.025044275591
 N   -3.036941057505    2.722942557799   -0.015166066573
 C   -4.336866544662    2.414863169438   -0.023620919731
 H   -5.146920073449    3.141443970540   -0.019572781868
 H   -5.482229118600    0.597593486804   -0.046259310208
 K    8.387960898920   -3.188181465064    0.092403026883
