16

 N   -4.620998617047    1.071773096872   -0.039141522839
 C   -3.388872884780    0.441482816864   -0.038186562531
 N   -3.118731948654   -0.879402658104   -0.041650751478
 C   -1.790602780191   -1.097596550854   -0.026083322815
 H   -1.476794497221   -2.144275283344   -0.022703752124
 N   -0.778253337150   -0.189615593713   -0.012112052540
 C   -1.090470081057    1.121205489536   -0.016758456440
 N   -0.082843126255    2.045704126841   -0.058580293371
 H    0.848608411132    1.715174018089    0.163877640762
 H   -0.315580632282    3.005674881880    0.166229952069
 C   -2.455970921931    1.497899343403   -0.025529544155
 N   -3.079500233122    2.736865044033   -0.015651335137
 C   -4.379425720279    2.428785655672   -0.024106188295
 H   -5.189479249066    3.155366456774   -0.020058050432
 H   -5.524788294217    0.611515973038   -0.046744578772
 K    8.535477870396   -3.236439049354    0.094085046046
