14

 H    0.095438161454    3.727413582587    0.000000000000
 H    1.620628161454    3.447893582587    0.902750000000
 H    1.620628161454    3.447893582587   -0.902750000000
 C    1.054988161454    3.194913582587    0.000000000000
 S    0.633288161454    1.406283582587    0.000000000000
 H    1.894088161454    0.914123582587    0.000000000000
 K   -0.084881838546   -0.188486417413    2.732140000000
 K   -0.084881838546   -0.188486417413   -2.732140000000
 S   -0.495495407892   -1.100295880332    0.000000000000
 H   -1.756291883415   -0.608138233020    0.000000000000
 C   -0.917189824397   -2.888938270942    0.000000000000
 H    0.042368943787   -3.421437734324    0.000000000000
 H   -1.482825308834   -3.141915500535   -0.902747264550
 H   -1.482825308834   -3.141915500535    0.902747264550
