14

 H    0.129435225859    3.802907544186    0.000000000000
 H    1.654625225859    3.523387544186    0.902750000000
 H    1.654625225859    3.523387544186   -0.902750000000
 C    1.088985225859    3.270407544186    0.000000000000
 S    0.667285225859    1.481777544186    0.000000000000
 H    1.928085225859    0.989617544186    0.000000000000
 K   -0.050884774141   -0.112992455814    2.732140000000
 K   -0.050884774141   -0.112992455814   -2.732140000000
 S   -0.584682414290   -1.298344757610    0.000000000000
 H   -1.845478889814   -0.806187110297    0.000000000000
 C   -1.006376830795   -3.086987148220    0.000000000000
 H   -0.046818062612   -3.619486611602    0.000000000000
 H   -1.572012315233   -3.339964377812   -0.902747264550
 H   -1.572012315233   -3.339964377812    0.902747264550
