14

 H    0.152099935462    3.853236851918    0.000000000000
 H    1.677289935462    3.573716851918    0.902750000000
 H    1.677289935462    3.573716851918   -0.902750000000
 C    1.111649935462    3.320736851918    0.000000000000
 S    0.689949935462    1.532106851918    0.000000000000
 H    1.950749935462    1.039946851918    0.000000000000
 K   -0.028220064538   -0.062663148082    2.732140000000
 K   -0.028220064538   -0.062663148082   -2.732140000000
 S   -0.644140418556   -1.430377342462    0.000000000000
 H   -1.904936894080   -0.938219695149    0.000000000000
 C   -1.065834835061   -3.219019733072    0.000000000000
 H   -0.106276066878   -3.751519196454    0.000000000000
 H   -1.631470319499   -3.471996962664   -0.902747264550
 H   -1.631470319499   -3.471996962664    0.902747264550
