14

 H    0.163432290263    3.878401505784    0.000000000000
 H    1.688622290263    3.598881505784    0.902750000000
 H    1.688622290263    3.598881505784   -0.902750000000
 C    1.122982290263    3.345901505784    0.000000000000
 S    0.701282290263    1.557271505784    0.000000000000
 H    1.962082290263    1.065111505784    0.000000000000
 K   -0.016887709737   -0.037498494216    2.732140000000
 K   -0.016887709737   -0.037498494216   -2.732140000000
 S   -0.673869420689   -1.496393634887    0.000000000000
 H   -1.934665896212   -1.004235987575    0.000000000000
 C   -1.095563837194   -3.285036025498    0.000000000000
 H   -0.136005069011   -3.817535488880    0.000000000000
 H   -1.661199321632   -3.538013255090   -0.902747264550
 H   -1.661199321632   -3.538013255090    0.902747264550
