14

 H    0.174764645065    3.903566159650    0.000000000000
 H    1.699954645065    3.624046159650    0.902750000000
 H    1.699954645065    3.624046159650   -0.902750000000
 C    1.134314645065    3.371066159650    0.000000000000
 S    0.712614645065    1.582436159650    0.000000000000
 H    1.973414645065    1.090276159650    0.000000000000
 K   -0.005555354935   -0.012333840350    2.732140000000
 K   -0.005555354935   -0.012333840350   -2.732140000000
 S   -0.703598422822   -1.562409927313    0.000000000000
 H   -1.964394898345   -1.070252280001    0.000000000000
 C   -1.125292839327   -3.351052317924    0.000000000000
 H   -0.165734071143   -3.883551781306    0.000000000000
 H   -1.690928323765   -3.604029547516   -0.902747264550
 H   -1.690928323765   -3.604029547516    0.902747264550
