14

 H    0.186096999867    3.928730813516    0.000000000000
 H    1.711286999867    3.649210813516    0.902750000000
 H    1.711286999867    3.649210813516   -0.902750000000
 C    1.145646999867    3.396230813516    0.000000000000
 S    0.723946999867    1.607600813516    0.000000000000
 H    1.984746999867    1.115440813516    0.000000000000
 K    0.005776999867    0.012830813516    2.732140000000
 K    0.005776999867    0.012830813516   -2.732140000000
 S   -0.733327424955   -1.628426219739    0.000000000000
 H   -1.994123900478   -1.136268572427    0.000000000000
 C   -1.155021841460   -3.417068610350    0.000000000000
 H   -0.195463073276   -3.949568073732    0.000000000000
 H   -1.720657325898   -3.670045839942   -0.902747264550
 H   -1.720657325898   -3.670045839942    0.902747264550
