14

 H    0.208761709470    3.979060121248    0.000000000000
 H    1.733951709470    3.699540121248    0.902750000000
 H    1.733951709470    3.699540121248   -0.902750000000
 C    1.168311709470    3.446560121248    0.000000000000
 S    0.746611709470    1.657930121248    0.000000000000
 H    2.007411709470    1.165770121248    0.000000000000
 K    0.028441709470    0.063160121248    2.732140000000
 K    0.028441709470    0.063160121248   -2.732140000000
 S   -0.792785429221   -1.760458804591    0.000000000000
 H   -2.053581904744   -1.268301157279    0.000000000000
 C   -1.214479845726   -3.549101195201    0.000000000000
 H   -0.254921077542   -4.081600658583    0.000000000000
 H   -1.780115330164   -3.802078424793   -0.902747264550
 H   -1.780115330164   -3.802078424793    0.902747264550
