14

 H    0.220094064272    4.004224775114    0.000000000000
 H    1.745284064272    3.724704775114    0.902750000000
 H    1.745284064272    3.724704775114   -0.902750000000
 C    1.179644064272    3.471724775114    0.000000000000
 S    0.757944064272    1.683094775114    0.000000000000
 H    2.018744064272    1.190934775114    0.000000000000
 K    0.039774064272    0.088324775114    2.732140000000
 K    0.039774064272    0.088324775114   -2.732140000000
 S   -0.822514431354   -1.826475097017    0.000000000000
 H   -2.083310906877   -1.334317449705    0.000000000000
 C   -1.244208847859   -3.615117487627    0.000000000000
 H   -0.284650079675   -4.147616951009    0.000000000000
 H   -1.809844332297   -3.868094717219   -0.902747264550
 H   -1.809844332297   -3.868094717219    0.902747264550
