14

 H    0.310752902684    4.205542006042    0.000000000000
 H    1.835942902684    3.926022006042    0.902750000000
 H    1.835942902684    3.926022006042   -0.902750000000
 C    1.270302902684    3.673042006042    0.000000000000
 S    0.848602902684    1.884412006042    0.000000000000
 H    2.109402902684    1.392252006042    0.000000000000
 K    0.130432902684    0.289642006042    2.732140000000
 K    0.130432902684    0.289642006042   -2.732140000000
 S   -1.060346448417   -2.354605436424    0.000000000000
 H   -2.321142923940   -1.862447789112    0.000000000000
 C   -1.482040864922   -4.143247827035    0.000000000000
 H   -0.522482096738   -4.675747290416    0.000000000000
 H   -2.047676349360   -4.396225056627   -0.902747264550
 H   -2.047676349360   -4.396225056627    0.902747264550
