14

 H    0.378747031494    4.356529929239    0.000000000000
 H    1.903937031494    4.077009929239    0.902750000000
 H    1.903937031494    4.077009929239   -0.902750000000
 C    1.338297031494    3.824029929239    0.000000000000
 S    0.916597031494    2.035399929239    0.000000000000
 H    2.177397031494    1.543239929239    0.000000000000
 K    0.198427031494    0.440629929239    2.732140000000
 K    0.198427031494    0.440629929239   -2.732140000000
 S   -1.238720461214   -2.750703190979    0.000000000000
 H   -2.499516936738   -2.258545543667    0.000000000000
 C   -1.660414877719   -4.539345581590    0.000000000000
 H   -0.700856109536   -5.071845044972    0.000000000000
 H   -2.226050362157   -4.792322811182   -0.902747264550
 H   -2.226050362157   -4.792322811182    0.902747264550
