14

 H    0.401411741097    4.406859236971    0.000000000000
 H    1.926601741097    4.127339236971    0.902750000000
 H    1.926601741097    4.127339236971   -0.902750000000
 C    1.360961741097    3.874359236971    0.000000000000
 S    0.939261741097    2.085729236971    0.000000000000
 H    2.200061741097    1.593569236971    0.000000000000
 K    0.221091741097    0.490959236971    2.732140000000
 K    0.221091741097    0.490959236971   -2.732140000000
 S   -1.298178465480   -2.882735775831    0.000000000000
 H   -2.558974941004   -2.390578128519    0.000000000000
 C   -1.719872881985   -4.671378166442    0.000000000000
 H   -0.760314113802   -5.203877629824    0.000000000000
 H   -2.285508366423   -4.924355396034   -0.902747264550
 H   -2.285508366423   -4.924355396034    0.902747264550
