14

 H    0.412744095899    4.432023890837    0.000000000000
 H    1.937934095899    4.152503890837    0.902750000000
 H    1.937934095899    4.152503890837   -0.902750000000
 C    1.372294095899    3.899523890837    0.000000000000
 S    0.950594095899    2.110893890837    0.000000000000
 H    2.211394095899    1.618733890837    0.000000000000
 K    0.232424095899    0.516123890837    2.732140000000
 K    0.232424095899    0.516123890837   -2.732140000000
 S   -1.327907467613   -2.948752068257    0.000000000000
 H   -2.588703943137   -2.456594420945    0.000000000000
 C   -1.749601884118   -4.737394458868    0.000000000000
 H   -0.790043115935   -5.269893922249    0.000000000000
 H   -2.315237368556   -4.990371688460   -0.902747264550
 H   -2.315237368556   -4.990371688460    0.902747264550
