14

 H    0.446741160304    4.507517852435    0.000000000000
 H    1.971931160304    4.227997852435    0.902750000000
 H    1.971931160304    4.227997852435   -0.902750000000
 C    1.406291160304    3.975017852435    0.000000000000
 S    0.984591160304    2.186387852435    0.000000000000
 H    2.245391160304    1.694227852435    0.000000000000
 K    0.266421160304    0.591617852435    2.732140000000
 K    0.266421160304    0.591617852435   -2.732140000000
 S   -1.417094474012   -3.146800945535    0.000000000000
 H   -2.677890949535   -2.654643298223    0.000000000000
 C   -1.838788890517   -4.935443336145    0.000000000000
 H   -0.879230122333   -5.467942799527    0.000000000000
 H   -2.404424374955   -5.188420565737   -0.902747264550
 H   -2.404424374955   -5.188420565737    0.902747264550
