14

 H    0.514735289114    4.658505775631    0.000000000000
 H    2.039925289114    4.378985775631    0.902750000000
 H    2.039925289114    4.378985775631   -0.902750000000
 C    1.474285289114    4.126005775631    0.000000000000
 S    1.052585289114    2.337375775631    0.000000000000
 H    2.313385289114    1.845215775631    0.000000000000
 K    0.334415289114    0.742605775631    2.732140000000
 K    0.334415289114    0.742605775631   -2.732140000000
 S   -1.595468486809   -3.542898700090    0.000000000000
 H   -2.856264962333   -3.050741052778    0.000000000000
 C   -2.017162903314   -5.331541090701    0.000000000000
 H   -1.057604135131   -5.864040554083    0.000000000000
 H   -2.582798387752   -5.584518320293   -0.902747264550
 H   -2.582798387752   -5.584518320293    0.902747264550
