14

 H    0.537399998717    4.708835083363    0.000000000000
 H    2.062589998717    4.429315083363    0.902750000000
 H    2.062589998717    4.429315083363   -0.902750000000
 C    1.496949998717    4.176335083363    0.000000000000
 S    1.075249998717    2.387705083363    0.000000000000
 H    2.336049998717    1.895545083363    0.000000000000
 K    0.357079998717    0.792935083363    2.732140000000
 K    0.357079998717    0.792935083363   -2.732140000000
 S   -1.654926491075   -3.674931284942    0.000000000000
 H   -2.915722966599   -3.182773637630    0.000000000000
 C   -2.076620907580   -5.463573675552    0.000000000000
 H   -1.117062139397   -5.996073138934    0.000000000000
 H   -2.642256392018   -5.716550905144   -0.902747264550
 H   -2.642256392018   -5.716550905144    0.902747264550
