14

 H    0.571397063122    4.784329044962    0.000000000000
 H    2.096587063122    4.504809044962    0.902750000000
 H    2.096587063122    4.504809044962   -0.902750000000
 C    1.530947063122    4.251829044962    0.000000000000
 S    1.109247063122    2.463199044962    0.000000000000
 H    2.370047063122    1.971039044962    0.000000000000
 K    0.391077063122    0.868429044962    2.732140000000
 K    0.391077063122    0.868429044962   -2.732140000000
 S   -1.744113497474   -3.872980162220    0.000000000000
 H   -3.004909972997   -3.380822514907    0.000000000000
 C   -2.165807913979   -5.661622552830    0.000000000000
 H   -1.206249145795   -6.194122016212    0.000000000000
 H   -2.731443398417   -5.914599782422   -0.902747264550
 H   -2.731443398417   -5.914599782422    0.902747264550
