14

 H    0.673388256336    5.010810929756    0.000000000000
 H    2.198578256336    4.731290929756    0.902750000000
 H    2.198578256336    4.731290929756   -0.902750000000
 C    1.632938256336    4.478310929756    0.000000000000
 S    1.211238256336    2.689680929756    0.000000000000
 H    2.472038256336    2.197520929756    0.000000000000
 K    0.493068256336    1.094910929756    2.732140000000
 K    0.493068256336    1.094910929756   -2.732140000000
 S   -2.011674516670   -4.467126794053    0.000000000000
 H   -3.272470992194   -3.974969146740    0.000000000000
 C   -2.433368933175   -6.255769184663    0.000000000000
 H   -1.473810164992   -6.788268648045    0.000000000000
 H   -2.999004417613   -6.508746414255   -0.902747264550
 H   -2.999004417613   -6.508746414255    0.902747264550
