14

 H    0.718717675543    5.111469545220    0.000000000000
 H    2.243907675543    4.831949545220    0.902750000000
 H    2.243907675543    4.831949545220   -0.902750000000
 C    1.678267675543    4.578969545220    0.000000000000
 S    1.256567675543    2.790339545220    0.000000000000
 H    2.517367675543    2.298179545220    0.000000000000
 K    0.538397675543    1.195569545220    2.732140000000
 K    0.538397675543    1.195569545220   -2.732140000000
 S   -2.130590525202   -4.731191963756    0.000000000000
 H   -3.391387000725   -4.239034316444    0.000000000000
 C   -2.552284941707   -6.519834354367    0.000000000000
 H   -1.592726173523   -7.052333817749    0.000000000000
 H   -3.117920426145   -6.772811583959   -0.902747264550
 H   -3.117920426145   -6.772811583959    0.902747264550
