14

 H    0.741382385146    5.161798852952    0.000000000000
 H    2.266572385146    4.882278852952    0.902750000000
 H    2.266572385146    4.882278852952   -0.902750000000
 C    1.700932385146    4.629298852952    0.000000000000
 S    1.279232385146    2.840668852952    0.000000000000
 H    2.540032385146    2.348508852952    0.000000000000
 K    0.561062385146    1.245898852952    2.732140000000
 K    0.561062385146    1.245898852952   -2.732140000000
 S   -2.190048529468   -4.863224548608    0.000000000000
 H   -3.450845004991   -4.371066901296    0.000000000000
 C   -2.611742945973   -6.651866939219    0.000000000000
 H   -1.652184177789   -7.184366402600    0.000000000000
 H   -3.177378430411   -6.904844168811   -0.902747264550
 H   -3.177378430411   -6.904844168811    0.902747264550
