14

 H    0.798044159154    5.287622122283    0.000000000000
 H    2.323234159154    5.008102122283    0.902750000000
 H    2.323234159154    5.008102122283   -0.902750000000
 C    1.757594159154    4.755122122283    0.000000000000
 S    1.335894159154    2.966492122283    0.000000000000
 H    2.596694159154    2.474332122283    0.000000000000
 K    0.617724159154    1.371722122283    2.732140000000
 K    0.617724159154    1.371722122283   -2.732140000000
 S   -2.338693540132   -5.193306010738    0.000000000000
 H   -3.599490015656   -4.701148363425    0.000000000000
 C   -2.760387956637   -6.981948401348    0.000000000000
 H   -1.800829188454   -7.514447864730    0.000000000000
 H   -3.326023441075   -7.234925630940   -0.902747264550
 H   -3.326023441075   -7.234925630940    0.902747264550
