14

 H    0.820708868757    5.337951430015    0.000000000000
 H    2.345898868757    5.058431430015    0.902750000000
 H    2.345898868757    5.058431430015   -0.902750000000
 C    1.780258868757    4.805451430015    0.000000000000
 S    1.358558868757    3.016821430015    0.000000000000
 H    2.619358868757    2.524661430015    0.000000000000
 K    0.640388868757    1.422051430015    2.732140000000
 K    0.640388868757    1.422051430015   -2.732140000000
 S   -2.398151544398   -5.325338595589    0.000000000000
 H   -3.658948019921   -4.833180948277    0.000000000000
 C   -2.819845960903   -7.113980986200    0.000000000000
 H   -1.860287192719   -7.646480449582    0.000000000000
 H   -3.385481445341   -7.366958215792   -0.902747264550
 H   -3.385481445341   -7.366958215792    0.902747264550
