14

 H    0.877370642766    5.463774699345    0.000000000000
 H    2.402560642766    5.184254699345    0.902750000000
 H    2.402560642766    5.184254699345   -0.902750000000
 C    1.836920642766    4.931274699345    0.000000000000
 S    1.415220642766    3.142644699345    0.000000000000
 H    2.676020642766    2.650484699345    0.000000000000
 K    0.697050642766    1.547874699345    2.732140000000
 K    0.697050642766    1.547874699345   -2.732140000000
 S   -2.546796555063   -5.655420057719    0.000000000000
 H   -3.807593030586   -5.163262410407    0.000000000000
 C   -2.968490971568   -7.444062448329    0.000000000000
 H   -2.008932203384   -7.976561911711    0.000000000000
 H   -3.534126456005   -7.697039677921   -0.902747264550
 H   -3.534126456005   -7.697039677921    0.902747264550
