14

 H    0.922700061972    5.564433314809    0.000000000000
 H    2.447890061972    5.284913314809    0.902750000000
 H    2.447890061972    5.284913314809   -0.902750000000
 C    1.882250061972    5.031933314809    0.000000000000
 S    1.460550061972    3.243303314809    0.000000000000
 H    2.721350061972    2.751143314809    0.000000000000
 K    0.742380061972    1.648533314809    2.732140000000
 K    0.742380061972    1.648533314809   -2.732140000000
 S   -2.665712563594   -5.919485227422    0.000000000000
 H   -3.926509039118   -5.427327580110    0.000000000000
 C   -3.087406980099   -7.708127618033    0.000000000000
 H   -2.127848211916   -8.240627081415    0.000000000000
 H   -3.653042464537   -7.961104847625   -0.902747264550
 H   -3.653042464537   -7.961104847625    0.902747264550
