14

 H    0.934032416774    5.589597968675    0.000000000000
 H    2.459222416774    5.310077968675    0.902750000000
 H    2.459222416774    5.310077968675   -0.902750000000
 C    1.893582416774    5.057097968675    0.000000000000
 S    1.471882416774    3.268467968675    0.000000000000
 H    2.732682416774    2.776307968675    0.000000000000
 K    0.753712416774    1.673697968675    2.732140000000
 K    0.753712416774    1.673697968675   -2.732140000000
 S   -2.695441565727   -5.985501519848    0.000000000000
 H   -3.956238041251   -5.493343872536    0.000000000000
 C   -3.117135982232   -7.774143910459    0.000000000000
 H   -2.157577214049   -8.306643373841    0.000000000000
 H   -3.682771466670   -8.027121140051   -0.902747264550
 H   -3.682771466670   -8.027121140051    0.902747264550
