14

 H    1.013358900385    5.765750545737    0.000000000000
 H    2.538548900385    5.486230545737    0.902750000000
 H    2.538548900385    5.486230545737   -0.902750000000
 C    1.972908900385    5.233250545737    0.000000000000
 S    1.551208900385    3.444620545737    0.000000000000
 H    2.812008900385    2.952460545737    0.000000000000
 K    0.833038900385    1.849850545737    2.732140000000
 K    0.833038900385    1.849850545737   -2.732140000000
 S   -2.903544580658   -6.447615566830    0.000000000000
 H   -4.164341056181   -5.955457919517    0.000000000000
 C   -3.325238997163   -8.236257957440    0.000000000000
 H   -2.365680228979   -8.768757420822    0.000000000000
 H   -3.890874481600   -8.489235187032   -0.902747264550
 H   -3.890874481600   -8.489235187032    0.902747264550
