14

 H    1.024691255187    5.790915199604    0.000000000000
 H    2.549881255187    5.511395199604    0.902750000000
 H    2.549881255187    5.511395199604   -0.902750000000
 C    1.984241255187    5.258415199604    0.000000000000
 S    1.562541255187    3.469785199604    0.000000000000
 H    2.823341255187    2.977625199604    0.000000000000
 K    0.844371255187    1.875015199604    2.732140000000
 K    0.844371255187    1.875015199604   -2.732140000000
 S   -2.933273582791   -6.513631859256    0.000000000000
 H   -4.194070058314   -6.021474211943    0.000000000000
 C   -3.354967999295   -8.302274249866    0.000000000000
 H   -2.395409231112   -8.834773713248    0.000000000000
 H   -3.920603483733   -8.555251479458   -0.902747264550
 H   -3.920603483733   -8.555251479458    0.902747264550
