14

 H    1.047355964790    5.841244507336    0.000000000000
 H    2.572545964790    5.561724507336    0.902750000000
 H    2.572545964790    5.561724507336   -0.902750000000
 C    2.006905964790    5.308744507336    0.000000000000
 S    1.585205964790    3.520114507336    0.000000000000
 H    2.846005964790    3.027954507336    0.000000000000
 K    0.867035964790    1.925344507336    2.732140000000
 K    0.867035964790    1.925344507336   -2.732140000000
 S   -2.992731587056   -6.645664444107    0.000000000000
 H   -4.253528062580   -6.153506796795    0.000000000000
 C   -3.414426003561   -8.434306834718    0.000000000000
 H   -2.454867235378   -8.966806298100    0.000000000000
 H   -3.980061487999   -8.687284064310   -0.902747264550
 H   -3.980061487999   -8.687284064310    0.902747264550
