14

 H    1.058688319591    5.866409161202    0.000000000000
 H    2.583878319591    5.586889161202    0.902750000000
 H    2.583878319591    5.586889161202   -0.902750000000
 C    2.018238319591    5.333909161202    0.000000000000
 S    1.596538319591    3.545279161202    0.000000000000
 H    2.857338319591    3.053119161202    0.000000000000
 K    0.878368319591    1.950509161202    2.732140000000
 K    0.878368319591    1.950509161202   -2.732140000000
 S   -3.022460589189   -6.711680736533    0.000000000000
 H   -4.283257064713   -6.219523089221    0.000000000000
 C   -3.444155005694   -8.500323127144    0.000000000000
 H   -2.484596237511   -9.032822590526    0.000000000000
 H   -4.009790490132   -8.753300356736   -0.902747264550
 H   -4.009790490132   -8.753300356736    0.902747264550
