14

 H    1.092685383996    5.941903122800    0.000000000000
 H    2.617875383996    5.662383122800    0.902750000000
 H    2.617875383996    5.662383122800   -0.902750000000
 C    2.052235383996    5.409403122800    0.000000000000
 S    1.630535383996    3.620773122800    0.000000000000
 H    2.891335383996    3.128613122800    0.000000000000
 K    0.912365383996    2.026003122800    2.732140000000
 K    0.912365383996    2.026003122800   -2.732140000000
 S   -3.111647595588   -6.909729613811    0.000000000000
 H   -4.372444071111   -6.417571966499    0.000000000000
 C   -3.533342012093   -8.698372004421    0.000000000000
 H   -2.573783243909   -9.230871467803    0.000000000000
 H   -4.098977496531   -8.951349234013   -0.902747264550
 H   -4.098977496531   -8.951349234013    0.902747264550
