10

 C    1.079864745523    0.536021322023    1.190535931696
 H    1.473351745523    1.549150322023    1.190755931696
 C    1.691897745523   -0.714086677977    1.190571931696
 H    2.757604745523   -0.932813677977    1.190477931696
 N   -0.275223254477    0.267053322023    1.190523931696
 H   -1.020157254477    0.953703322023    1.190777931696
 C   -0.433029254477   -1.096986677977    1.190578931696
 H   -1.410653254477   -1.573002677977    1.190452931696
 N    0.745886745523   -1.723581677977    1.190567931696
CS   -0.274403842577    0.268608128061   -0.609475210287
