10

 C    1.077395787283    0.531336558252    6.614087527953
 H    1.470882787283    1.544465558252    6.614307527953
 C    1.689428787283   -0.718771441748    6.614123527953
 H    2.755135787283   -0.937498441748    6.614029527953
 N   -0.277692212717    0.262368558252    6.614075527953
 H   -1.022626212717    0.949018558252    6.614329527953
 C   -0.435498212717   -1.101671441748    6.614130527953
 H   -1.413122212717   -1.577687441748    6.614004527953
 N    0.743417787283   -1.728266441748    6.614119527953
CS   -0.273139924388    0.271006369573   -3.385919705290
