10

 C    1.079804527030    0.535907059492    1.322817677947
 H    1.473291527030    1.549036059492    1.323037677947
 C    1.691837527030   -0.714200940508    1.322853677947
 H    2.757544527030   -0.932927940508    1.322759677947
 N   -0.275283472970    0.266939059492    1.322805677947
 H   -1.020217472970    0.953589059492    1.323059677947
 C   -0.433089472970   -1.097100940508    1.322860677947
 H   -1.410713472970   -1.573116940508    1.322734677947
 N    0.745826527030   -1.723695940508    1.322849677947
CS   -0.274373015304    0.268666621756   -0.677193368702
