10

 C    1.079774417783    0.535849928227    1.388958551072
 H    1.473261417783    1.548978928227    1.389178551072
 C    1.691807417783   -0.714258071773    1.388994551072
 H    2.757514417783   -0.932985071773    1.388900551072
 N   -0.275313582217    0.266881928227    1.388946551072
 H   -1.020247582217    0.953531928227    1.389200551072
 C   -0.433119582217   -1.097158071773    1.389001551072
 H   -1.410743582217   -1.573174071773    1.388875551072
 N    0.745796417783   -1.723753071773    1.388990551072
CS   -0.274357601668    0.268695868604   -0.711052447909
