10

 C    1.079714199289    0.535735665696    1.521240297322
 H    1.473201199289    1.548864665696    1.521460297322
 C    1.691747199289   -0.714372334304    1.521276297322
 H    2.757454199289   -0.933099334304    1.521182297322
 N   -0.275373800711    0.266767665696    1.521228297322
 H   -1.020307800711    0.953417665696    1.521482297322
 C   -0.433179800711   -1.097272334304    1.521283297322
 H   -1.410803800711   -1.573288334304    1.521157297322
 N    0.745736199289   -1.723867334304    1.521272297322
CS   -0.274326774395    0.268754362300   -0.778770606324
