10

 C    1.079563653055    0.535450009368    1.851944662947
 H    1.473050653055    1.548579009368    1.852164662947
 C    1.691596653055   -0.714657990632    1.851980662947
 H    2.757303653055   -0.933384990632    1.851886662947
 N   -0.275524346945    0.266482009368    1.851932662947
 H   -1.020458346945    0.953132009368    1.852186662947
 C   -0.433330346945   -1.097557990632    1.851987662947
 H   -1.410954346945   -1.573573990632    1.851861662947
 N    0.745585653055   -1.724152990632    1.851976662947
CS   -0.274249706213    0.268900596538   -0.948066002361
