10

 C    1.079382997574    0.535107221775    2.248789901698
 H    1.472869997574    1.548236221775    2.249009901698
 C    1.691415997574   -0.715000778225    2.248825901698
 H    2.757122997574   -0.933727778225    2.248731901698
 N   -0.275705002426    0.266139221775    2.248777901698
 H   -1.020639002426    0.952789221775    2.249031901698
 C   -0.433511002426   -1.097900778225    2.248832901698
 H   -1.411135002426   -1.573916778225    2.248706901698
 N    0.745404997574   -1.724495778225    2.248821901698
CS   -0.274157224394    0.269076077624   -1.151220477605
