10

 C    1.079292669834    0.534935827979    2.447212521073
 H    1.472779669834    1.548064827979    2.447432521073
 C    1.691325669834   -0.715172172021    2.447248521073
 H    2.757032669834   -0.933899172021    2.447154521073
 N   -0.275795330166    0.265967827979    2.447200521073
 H   -1.020729330166    0.952617827979    2.447454521073
 C   -0.433601330166   -1.098072172021    2.447255521073
 H   -1.411225330166   -1.574088172021    2.447129521073
 N    0.745314669834   -1.724667172021    2.447244521073
CS   -0.274110983485    0.269163818168   -1.252797715227
