10

 C    1.079262560587    0.534878696713    2.513353394198
 H    1.472749560587    1.548007696713    2.513573394198
 C    1.691295560587   -0.715229303287    2.513389394198
 H    2.757002560587   -0.933956303287    2.513295394198
 N   -0.275825439413    0.265910696713    2.513341394198
 H   -1.020759439413    0.952560696713    2.513595394198
 C   -0.433631439413   -1.098129303287    2.513396394198
 H   -1.411255439413   -1.574145303287    2.513270394198
 N    0.745284560587   -1.724724303287    2.513385394198
CS   -0.274095569848    0.269193065015   -1.286656794434
