10

 C    1.079232451340    0.534821565448    2.579494267323
 H    1.472719451340    1.547950565448    2.579714267323
 C    1.691265451340   -0.715286434552    2.579530267323
 H    2.756972451340   -0.934013434552    2.579436267323
 N   -0.275855548660    0.265853565448    2.579482267323
 H   -1.020789548660    0.952503565448    2.579736267323
 C   -0.433661548660   -1.098186434552    2.579537267323
 H   -1.411285548660   -1.574202434552    2.579411267323
 N    0.745254451340   -1.724781434552    2.579526267323
CS   -0.274080156212    0.269222311863   -1.320515873642
