10

 C    1.079202342093    0.534764434182    2.645635140448
 H    1.472689342093    1.547893434182    2.645855140448
 C    1.691235342093   -0.715343565818    2.645671140448
 H    2.756942342093   -0.934070565818    2.645577140448
 N   -0.275885657907    0.265796434182    2.645623140448
 H   -1.020819657907    0.952446434182    2.645877140448
 C   -0.433691657907   -1.098243565818    2.645678140448
 H   -1.411315657907   -1.574259565818    2.645552140448
 N    0.745224342093   -1.724838565818    2.645667140448
CS   -0.274064742575    0.269251558711   -1.354374952849
