10

 C    1.079172232846    0.534707302917    2.711776013573
 H    1.472659232846    1.547836302917    2.711996013573
 C    1.691205232846   -0.715400697083    2.711812013573
 H    2.756912232846   -0.934127697083    2.711718013573
 N   -0.275915767154    0.265739302917    2.711764013573
 H   -1.020849767154    0.952389302917    2.712018013573
 C   -0.433721767154   -1.098300697083    2.711819013573
 H   -1.411345767154   -1.574316697083    2.711693013573
 N    0.745194232846   -1.724895697083    2.711808013573
CS   -0.274049328939    0.269280805558   -1.388234032056
