10

 C    1.079081905106    0.534535909120    2.910198632949
 H    1.472568905106    1.547664909120    2.910418632949
 C    1.691114905106   -0.715572090880    2.910234632949
 H    2.756821905106   -0.934299090880    2.910140632949
 N   -0.276006094894    0.265567909120    2.910186632949
 H   -1.020940094894    0.952217909120    2.910440632949
 C   -0.433812094894   -1.098472090880    2.910241632949
 H   -1.411436094894   -1.574488090880    2.910115632949
 N    0.745103905106   -1.725067090880    2.910230632949
CS   -0.274003088029    0.269368546102   -1.489811269678
