10

 C    1.079051795859    0.534478777855    2.976339506074
 H    1.472538795859    1.547607777855    2.976559506074
 C    1.691084795859   -0.715629222145    2.976375506074
 H    2.756791795859   -0.934356222145    2.976281506074
 N   -0.276036204141    0.265510777855    2.976327506074
 H   -1.020970204141    0.952160777855    2.976581506074
 C   -0.433842204141   -1.098529222145    2.976382506074
 H   -1.411466204141   -1.574545222145    2.976256506074
 N    0.745073795859   -1.725124222145    2.976371506074
CS   -0.273987674393    0.269397792949   -1.523670348886
