10

 C    1.078991577365    0.534364515324    3.108621252324
 H    1.472478577365    1.547493515324    3.108841252324
 C    1.691024577365   -0.715743484676    3.108657252324
 H    2.756731577365   -0.934470484676    3.108563252324
 N   -0.276096422635    0.265396515324    3.108609252324
 H   -1.021030422635    0.952046515324    3.108863252324
 C   -0.433902422635   -1.098643484676    3.108664252324
 H   -1.411526422635   -1.574659484676    3.108538252324
 N    0.745013577365   -1.725238484676    3.108653252324
CS   -0.273956847120    0.269456286645   -1.591388507300
