10

 C    1.078901249625    0.534193121527    3.307043871699
 H    1.472388249625    1.547322121527    3.307263871699
 C    1.690934249625   -0.715914878473    3.307079871699
 H    2.756641249625   -0.934641878473    3.306985871699
 N   -0.276186750375    0.265225121527    3.307031871699
 H   -1.021120750375    0.951875121527    3.307285871699
 C   -0.433992750375   -1.098814878473    3.307086871699
 H   -1.411616750375   -1.574830878473    3.306960871699
 N    0.744923249625   -1.725409878473    3.307075871699
CS   -0.273910606211    0.269544027188   -1.692965744922
