10

 C    1.078690484897    0.533793202669    3.770029983575
 H    1.472177484897    1.546922202669    3.770249983575
 C    1.690723484897   -0.716314797331    3.770065983575
 H    2.756430484897   -0.935041797331    3.769971983575
 N   -0.276397515103    0.264825202669    3.770017983575
 H   -1.021331515103    0.951475202669    3.770271983575
 C   -0.434203515103   -1.099214797331    3.770072983575
 H   -1.411827515103   -1.575230797331    3.769946983575
 N    0.744712484897   -1.725809797331    3.770061983575
CS   -0.273802710755    0.269748755122   -1.929979299374
