10

 C    1.078660375650    0.533736071403    3.836170856700
 H    1.472147375650    1.546865071403    3.836390856700
 C    1.690693375650   -0.716371928597    3.836206856700
 H    2.756400375650   -0.935098928597    3.836112856700
 N   -0.276427624350    0.264768071403    3.836158856700
 H   -1.021361624350    0.951418071403    3.836412856700
 C   -0.434233624350   -1.099271928597    3.836213856700
 H   -1.411857624350   -1.575287928597    3.836087856700
 N    0.744682375650   -1.725866928597    3.836202856700
CS   -0.273787297119    0.269778001969   -1.963838378581
