10

 C    1.078419501675    0.533279021279    4.365297841701
 H    1.471906501675    1.546408021279    4.365517841701
 C    1.690452501675   -0.716828978721    4.365333841701
 H    2.756159501675   -0.935555978721    4.365239841701
 N   -0.276668498325    0.264311021279    4.365285841701
 H   -1.021602498325    0.950961021279    4.365539841701
 C   -0.434474498325   -1.099728978721    4.365340841701
 H   -1.412098498325   -1.575744978721    4.365214841701
 N    0.744441501675   -1.726323978721    4.365329841701
CS   -0.273663988027    0.270011976751   -2.234711012240
