10

 C    1.078268955441    0.532993364952    4.696002207326
 H    1.471755955441    1.546122364952    4.696222207326
 C    1.690301955441   -0.717114635048    4.696038207326
 H    2.756008955441   -0.935841635048    4.695944207326
 N   -0.276819044559    0.264025364952    4.695990207326
 H   -1.021753044559    0.950675364952    4.696244207326
 C   -0.434625044559   -1.100014635048    4.696045207326
 H   -1.412249044559   -1.576030635048    4.695919207326
 N    0.744290955441   -1.726609635048    4.696034207326
CS   -0.273586919845    0.270158210990   -2.404006408277
