10

 C    1.078238846194    0.532936233686    4.762143080451
 H    1.471725846194    1.546065233686    4.762363080451
 C    1.690271846194   -0.717171766314    4.762179080451
 H    2.755978846194   -0.935898766314    4.762085080451
 N   -0.276849153806    0.263968233686    4.762131080451
 H   -1.021783153806    0.950618233686    4.762385080451
 C   -0.434655153806   -1.100071766314    4.762186080451
 H   -1.412279153806   -1.576087766314    4.762060080451
 N    0.744260846194   -1.726666766314    4.762175080451
CS   -0.273571506209    0.270187457837   -2.437865487484
