10

 C    1.078178627701    0.532821971155    4.894424826701
 H    1.471665627701    1.545950971155    4.894644826701
 C    1.690211627701   -0.717286028845    4.894460826701
 H    2.755918627701   -0.936013028845    4.894366826701
 N   -0.276909372299    0.263853971155    4.894412826701
 H   -1.021843372299    0.950503971155    4.894666826701
 C   -0.434715372299   -1.100186028845    4.894467826701
 H   -1.412339372299   -1.576202028845    4.894341826701
 N    0.744200627701   -1.726781028845    4.894456826701
CS   -0.273540678936    0.270245951533   -2.505583645899
