10

 C    1.078148518454    0.532764839890    4.960565699826
 H    1.471635518454    1.545893839890    4.960785699826
 C    1.690181518454   -0.717343160110    4.960601699826
 H    2.755888518454   -0.936070160110    4.960507699826
 N   -0.276939481546    0.263796839890    4.960553699826
 H   -1.021873481546    0.950446839890    4.960807699826
 C   -0.434745481546   -1.100243160110    4.960608699826
 H   -1.412369481546   -1.576259160110    4.960482699826
 N    0.744170518454   -1.726838160110    4.960597699826
CS   -0.273525265299    0.270275198381   -2.539442725106
