10

 C    1.078118409207    0.532707708624    5.026706572951
 H    1.471605409207    1.545836708624    5.026926572951
 C    1.690151409207   -0.717400291376    5.026742572951
 H    2.755858409207   -0.936127291376    5.026648572951
 N   -0.276969590793    0.263739708624    5.026694572951
 H   -1.021903590793    0.950389708624    5.026948572951
 C   -0.434775590793   -1.100300291376    5.026749572951
 H   -1.412399590793   -1.576316291376    5.026623572951
 N    0.744140409207   -1.726895291376    5.026738572951
CS   -0.273509851663    0.270304445228   -2.573301804313
