10

 C    1.078088299960    0.532650577359    5.092847446076
 H    1.471575299960    1.545779577359    5.093067446076
 C    1.690121299960   -0.717457422641    5.092883446076
 H    2.755828299960   -0.936184422641    5.092789446076
 N   -0.276999700040    0.263682577359    5.092835446076
 H   -1.021933700040    0.950332577359    5.093089446076
 C   -0.434805700040   -1.100357422641    5.092890446076
 H   -1.412429700040   -1.576373422641    5.092764446076
 N    0.744110299960   -1.726952422641    5.092879446076
CS   -0.273494438026    0.270333692076   -2.607160883521
