10

 C    1.077967862973    0.532422052297    5.357410938577
 H    1.471454862973    1.545551052297    5.357630938577
 C    1.690000862973   -0.717685947703    5.357446938577
 H    2.755707862973   -0.936412947703    5.357352938577
 N   -0.277120137027    0.263454052297    5.357398938577
 H   -1.022054137027    0.950104052297    5.357652938577
 C   -0.434926137027   -1.100585947703    5.357453938577
 H   -1.412550137027   -1.576601947703    5.357327938577
 N    0.743989862973   -1.727180947703    5.357442938577
CS   -0.273432783480    0.270450679467   -2.742597200350
