10

 C    1.077877535232    0.532250658500    5.555833557952
 H    1.471364535232    1.545379658500    5.556053557952
 C    1.689910535232   -0.717857341500    5.555869557952
 H    2.755617535232   -0.936584341500    5.555775557952
 N   -0.277210464768    0.263282658500    5.555821557952
 H   -1.022144464768    0.949932658500    5.556075557952
 C   -0.435016464768   -1.100757341500    5.555876557952
 H   -1.412640464768   -1.576773341500    5.555750557952
 N    0.743899535232   -1.727352341500    5.555865557952
CS   -0.273386542571    0.270538420010   -2.844174437972
