10

 C    1.077696879751    0.531907870907    5.952678796703
 H    1.471183879751    1.545036870907    5.952898796703
 C    1.689729879751   -0.718200129093    5.952714796703
 H    2.755436879751   -0.936927129093    5.952620796703
 N   -0.277391120249    0.262939870907    5.952666796703
 H   -1.022325120249    0.949589870907    5.952920796703
 C   -0.435197120249   -1.101100129093    5.952721796703
 H   -1.412821120249   -1.577116129093    5.952595796703
 N    0.743718879751   -1.727695129093    5.952710796703
CS   -0.273294060752    0.270713901096   -3.047328913216
