10

 C    1.077636661258    0.531793608376    6.084960542953
 H    1.471123661258    1.544922608376    6.085180542953
 C    1.689669661258   -0.718314391624    6.084996542953
 H    2.755376661258   -0.937041391624    6.084902542953
 N   -0.277451338742    0.262825608376    6.084948542953
 H   -1.022385338742    0.949475608376    6.085202542953
 C   -0.435257338742   -1.101214391624    6.085003542953
 H   -1.412881338742   -1.577230391624    6.084877542953
 N    0.743658661258   -1.727809391624    6.084992542953
CS   -0.273263233479    0.270772394792   -3.115047071631
