10

 C    1.077576442764    0.531679345845    6.217242289203
 H    1.471063442764    1.544808345845    6.217462289203
 C    1.689609442764   -0.718428654155    6.217278289203
 H    2.755316442764   -0.937155654155    6.217184289203
 N   -0.277511557236    0.262711345845    6.217230289203
 H   -1.022445557236    0.949361345845    6.217484289203
 C   -0.435317557236   -1.101328654155    6.217285289203
 H   -1.412941557236   -1.577344654155    6.217159289203
 N    0.743598442764   -1.727923654155    6.217274289203
CS   -0.273232406206    0.270830888487   -3.182765230046
