10

 C    1.077486115023    0.531507952049    6.415664908578
 H    1.470973115023    1.544636952049    6.415884908578
 C    1.689519115023   -0.718600047951    6.415700908578
 H    2.755226115023   -0.937327047951    6.415606908578
 N   -0.277601884977    0.262539952049    6.415652908578
 H   -1.022535884977    0.949189952049    6.415906908578
 C   -0.435407884977   -1.101500047951    6.415707908578
 H   -1.413031884977   -1.577516047951    6.415581908578
 N    0.743508115023   -1.728095047951    6.415696908578
CS   -0.273186165297    0.270918629030   -3.284342467668
