19

 C    0.330959288107    3.769508008789   -0.042472442715
 H    1.072799288107    4.560468008789   -0.082872442715
 C    0.431879288107    2.386528008789   -0.037642442715
 H    1.346759288107    1.796868008789   -0.076992442715
 N   -1.021220711893    4.018658008789    0.019707557285
 H   -1.453800711893    4.936518008789    0.033737557285
 C   -1.683860711893    2.826668008789    0.059177557285
 H   -2.765430711893    2.746868008789    0.110917557285
 N   -0.824080711893    1.805508008789    0.025757557285
 K    0.233599288107   -0.511801991211   -0.007302442715
 N    0.690302935509   -1.512410804050   -0.021577670179
 C   -0.565656086039   -2.093423517191    0.041822230923
 H   -1.480527087566   -1.503772399208    0.081173841144
 C   -0.464739477630   -3.476408035303    0.046654384404
 H   -1.206574308939   -4.267370065423    0.087057052215
 N    0.887442700861   -3.725559420170   -0.015524921552
 H    1.320025299458   -4.643412424074   -0.029546583892
 C    1.550083167996   -2.533573203852   -0.054992960005
 H    2.631659804906   -2.453772920043   -0.106732265123
