19

 C    0.314821055410    3.804865856162   -0.041968008508
 H    1.056661055410    4.595825856162   -0.082368008508
 C    0.415741055410    2.421885856162   -0.037138008508
 H    1.330621055410    1.832225856162   -0.076488008508
 N   -1.037358944590    4.054015856162    0.020211991492
 H   -1.469938944590    4.971875856162    0.034241991492
 C   -1.699998944590    2.862025856162    0.059681991492
 H   -2.781568944590    2.782225856162    0.111421991492
 N   -0.840218944590    1.840865856162    0.026261991492
 K    0.217461055410   -0.476444143838   -0.006798008508
 N    0.715683216213   -1.568017394207   -0.022370983922
 C   -0.540275805335   -2.149030107348    0.041028917180
 H   -1.455146806862   -1.559378989366    0.080380527400
 C   -0.439359196927   -3.532014625461    0.045861070661
 H   -1.181194028235   -4.322976655581    0.086263738472
 N    0.912822981565   -3.781166010327   -0.016318235295
 H    1.345405580162   -4.699019014232   -0.030339897635
 C    1.575463448700   -2.589179794010   -0.055786273748
 H    2.657040085610   -2.509379510200   -0.107525578866
