19

 C    0.298682822714    3.840223703535   -0.041463574300
 H    1.040522822714    4.631183703535   -0.081863574300
 C    0.399602822714    2.457243703535   -0.036633574300
 H    1.314482822714    1.867583703535   -0.075983574300
 N   -1.053497177286    4.089373703535    0.020716425700
 H   -1.486077177286    5.007233703535    0.034746425700
 C   -1.716137177286    2.897383703535    0.060186425700
 H   -2.797707177286    2.817583703535    0.111926425700
 N   -0.856357177286    1.876223703535    0.026766425700
 K    0.201322822714   -0.441086296465   -0.006293574300
 N    0.741063496917   -1.623623984365   -0.023164297665
 C   -0.514895524631   -2.204636697506    0.040235603436
 H   -1.429766526159   -1.614985579523    0.079587213657
 C   -0.413978916223   -3.587621215618    0.045067756918
 H   -1.155813747531   -4.378583245739    0.085470424729
 N    0.938203262269   -3.836772600485   -0.017111549039
 H    1.370785860866   -4.754625604389   -0.031133211378
 C    1.600843729404   -2.644786384167   -0.056579587492
 H    2.682420366314   -2.564986100358   -0.108318892610
