19

 C    0.201853426535    4.052370787774   -0.038436969053
 H    0.943693426535    4.843330787774   -0.078836969053
 C    0.302773426535    2.669390787774   -0.033606969053
 H    1.217653426535    2.079730787774   -0.072956969053
 N   -1.150326573465    4.301520787774    0.023743030947
 H   -1.582906573465    5.219380787774    0.037773030947
 C   -1.812966573465    3.109530787774    0.063213030947
 H   -2.894536573465    3.029730787774    0.114953030947
 N   -0.953186573465    2.088370787774    0.029793030947
 K    0.104493426535   -0.228939212226   -0.003266969053
 N    0.893345181140   -1.957263525310   -0.027924180125
 C   -0.362613840408   -2.538276238451    0.035475720976
 H   -1.277484841936   -1.948625120468    0.074827331197
 C   -0.261697232000   -3.921260756564    0.040307874458
 H   -1.003532063308   -4.712222786684    0.080710542268
 N    1.090484946492   -4.170412141430   -0.021871431499
 H    1.523067545089   -5.088265145335   -0.035893093839
 C    1.753125413627   -2.978425925112   -0.061339469952
 H    2.834702050537   -2.898625641303   -0.113078775070
