19

 C    0.185715193839    4.087728635148   -0.037932534845
 H    0.927555193839    4.878688635148   -0.078332534845
 C    0.286635193839    2.704748635148   -0.033102534845
 H    1.201515193839    2.115088635148   -0.072452534845
 N   -1.166464806161    4.336878635148    0.024247465155
 H   -1.599044806161    5.254738635148    0.038277465155
 C   -1.829104806161    3.144888635148    0.063717465155
 H   -2.910674806161    3.065088635148    0.115457465155
 N   -0.969324806161    2.123728635148    0.030297465155
 K    0.088355193839   -0.193581364852   -0.002762534845
 N    0.918725461844   -2.012870115468   -0.028717493869
 C   -0.337233559705   -2.593882828608    0.034682407233
 H   -1.252104561232   -2.004231710626    0.074034017453
 C   -0.236316951296   -3.976867346721    0.039514560714
 H   -0.978151782604   -4.767829376841    0.079917228525
 N    1.115865227196   -4.226018731588   -0.022664745242
 H    1.548447825793   -5.143871735492   -0.036686407582
 C    1.778505694331   -3.034032515270   -0.062132783695
 H    2.860082331241   -2.954232231461   -0.113872088813
