19

 C    0.121162263053    4.229160024641   -0.035914798014
 H    0.863002263053    5.020120024641   -0.076314798014
 C    0.222082263053    2.846180024641   -0.031084798014
 H    1.136962263053    2.256520024641   -0.070434798014
 N   -1.231017736947    4.478310024641    0.026265201986
 H   -1.663597736947    5.396170024641    0.040295201986
 C   -1.893657736947    3.286320024641    0.065735201986
 H   -2.975227736947    3.206520024641    0.117475201986
 N   -1.033877736947    2.265160024641    0.032315201986
 K    0.023802263053   -0.052149975359   -0.000744798014
 N    1.020246584659   -2.235296476098   -0.031890748842
 C   -0.235712436889   -2.816309189238    0.031509152259
 H   -1.150583438416   -2.226658071256    0.070860762480
 C   -0.134795828480   -4.199293707351    0.036341305741
 H   -0.876630659789   -4.990255737471    0.076743973552
 N    1.217386350011   -4.448445092218   -0.025838000216
 H    1.649968948608   -5.366298096122   -0.039859662555
 C    1.880026817146   -3.256458875900   -0.065306038669
 H    2.961603454056   -3.176658592091   -0.117045343787
