19

 C    0.105024030357    4.264517872014   -0.035410363806
 H    0.846864030357    5.055477872014   -0.075810363806
 C    0.205944030357    2.881537872014   -0.030580363806
 H    1.120824030357    2.291877872014   -0.069930363806
 N   -1.247155969643    4.513667872014    0.026769636194
 H   -1.679735969643    5.431527872014    0.040799636194
 C   -1.909795969643    3.321677872014    0.066239636194
 H   -2.991365969643    3.241877872014    0.117979636194
 N   -1.050015969643    2.300517872014    0.032819636194
 K    0.007664030357   -0.016792127986   -0.000240363806
 N    1.045626865363   -2.290903066255   -0.032684062585
 C   -0.210332156185   -2.871915779396    0.030715838516
 H   -1.125203157713   -2.282264661414    0.070067448737
 C   -0.109415547777   -4.254900297509    0.035547991997
 H   -0.851250379085   -5.045862327629    0.075950659808
 N    1.242766630715   -4.504051682375   -0.026631313959
 H    1.675349229312   -5.421904686280   -0.040652976299
 C    1.905407097850   -3.312065466057   -0.066099352412
 H    2.986983734760   -3.232265182248   -0.117838657530
