19

 C    0.008194634178    4.476664956253   -0.032383758559
 H    0.750034634178    5.267624956253   -0.072783758559
 C    0.109114634178    3.093684956253   -0.027553758559
 H    1.023994634178    2.504024956253   -0.066903758559
 N   -1.343985365822    4.725814956253    0.029796241441
 H   -1.776565365822    5.643674956253    0.043826241441
 C   -2.006625365822    3.533824956253    0.069266241441
 H   -3.088195365822    3.454024956253    0.121006241441
 N   -1.146845365822    2.512664956253    0.035846241441
 K   -0.089165365822    0.195354956253    0.002786241441
 N    1.197908549586   -2.624542607200   -0.037443945046
 C   -0.058050471962   -3.205555320341    0.025955956056
 H   -0.972921473489   -2.615904202359    0.065307566276
 C    0.042866136446   -4.588539838454    0.030788109537
 H   -0.698968694862   -5.379501868574    0.071190777348
 N    1.395048314938   -4.837691223320   -0.031391196419
 H    1.827630913535   -5.755544227225   -0.045412858759
 C    2.057688782073   -3.645705007003   -0.070859234872
 H    3.139265418983   -3.565904723194   -0.122598539990
