19

 C   -0.007943598518    4.512022803626   -0.031879324351
 H    0.733896401482    5.302982803626   -0.072279324351
 C    0.092976401482    3.129042803626   -0.027049324351
 H    1.007856401482    2.539382803626   -0.066399324351
 N   -1.360123598518    4.761172803626    0.030300675649
 H   -1.792703598518    5.679032803626    0.044330675649
 C   -2.022763598518    3.569182803626    0.069770675649
 H   -3.104333598518    3.489382803626    0.121510675649
 N   -1.162983598518    2.548022803626    0.036350675649
 K   -0.105303598518    0.230712803626    0.003290675649
 N    1.223288830290   -2.680149197358   -0.038237258789
 C   -0.032670191258   -3.261161910499    0.025162642313
 H   -0.947541192786   -2.671510792516    0.064514252533
 C    0.068246417150   -4.644146428612    0.029994795794
 H   -0.673588414158   -5.435108458732    0.070397463605
 N    1.420428595642   -4.893297813478   -0.032184510162
 H    1.853011194239   -5.811150817382   -0.046206172502
 C    2.083069062777   -3.701311597160   -0.071652548615
 H    3.164645699687   -3.621511313351   -0.123391853733
