19

 C   -0.040220063911    4.582738498373   -0.030870455935
 H    0.701619936089    5.373698498373   -0.071270455935
 C    0.060699936089    3.199758498373   -0.026040455935
 H    0.975579936089    2.610098498373   -0.065390455935
 N   -1.392400063911    4.831888498373    0.031309544065
 H   -1.824980063911    5.749748498373    0.045339544065
 C   -2.055040063911    3.639898498373    0.070779544065
 H   -3.136610063911    3.560098498373    0.122519544065
 N   -1.195260063911    2.618738498373    0.037359544065
 K   -0.137580063911    0.301428498373    0.004299544065
 N    1.274049391698   -2.791362377673   -0.039823886276
 C    0.018090370149   -3.372375090814    0.023576014826
 H   -0.896780631378   -2.782723972831    0.062927625046
 C    0.119006978558   -4.755359608927    0.028408168307
 H   -0.622827852750   -5.546321639047    0.068810836118
 N    1.471189157049   -5.004510993793   -0.033771137649
 H    1.903771755646   -5.922363997697   -0.047792799989
 C    2.133829624184   -3.812524777475   -0.073239176102
 H    3.215406261095   -3.732724493666   -0.124978481220
