19

 C   -0.153187692786    4.830243429986   -0.027339416480
 H    0.588652307214    5.621203429986   -0.067739416480
 C   -0.052267692786    3.447263429986   -0.022509416480
 H    0.862612307214    2.857603429986   -0.061859416480
 N   -1.505367692786    5.079393429986    0.034840583520
 H   -1.937947692786    5.997253429986    0.048870583520
 C   -2.168007692786    3.887403429986    0.074310583520
 H   -3.249577692786    3.807603429986    0.126050583520
 N   -1.308227692786    2.866243429986    0.040890583520
 K   -0.250547692786    0.548933429986    0.007830583520
 N    1.451711356625   -3.180608508776   -0.045377082479
 C    0.195752335076   -3.761621221916    0.018022818622
 H   -0.719118666451   -3.171970103934    0.057374428843
 C    0.296668943485   -5.144605740029    0.022854972104
 H   -0.445165887823   -5.935567770149    0.063257639915
 N    1.648851121976   -5.393757124896   -0.039324333853
 H    2.081433720573   -6.311610128800   -0.053345996192
 C    2.311491589111   -4.201770908578   -0.078792372306
 H    3.393068226021   -4.121970624769   -0.130531677424
