19

 C   -0.169325925482    4.865601277359   -0.026834982273
 H    0.572514074518    5.656561277359   -0.067234982273
 C   -0.068405925482    3.482621277359   -0.022004982273
 H    0.846474074518    2.892961277359   -0.061354982273
 N   -1.521505925482    5.114751277359    0.035345017727
 H   -1.954085925482    6.032611277359    0.049375017727
 C   -2.184145925482    3.922761277359    0.074815017727
 H   -3.265715925482    3.842961277359    0.126555017727
 N   -1.324365925482    2.901601277359    0.041395017727
 K   -0.266685925482    0.584291277359    0.008335017727
 N    1.477091637328   -3.236215098933   -0.046170396222
 C    0.221132615780   -3.817227812074    0.017229504879
 H   -0.693738385747   -3.227576694092    0.056581115100
 C    0.322049224189   -5.200212330187    0.022061658360
 H   -0.419785607120   -5.991174360307    0.062464326171
 N    1.674231402680   -5.449363715053   -0.040117647596
 H    2.106814001277   -6.367216718958   -0.054139309936
 C    2.336871869815   -4.257377498735   -0.079585686049
 H    3.418448506725   -4.177577214926   -0.131324991167
