19

 C   -0.266155321661    5.077748361598   -0.023808377026
 H    0.475684678339    5.868708361598   -0.064208377026
 C   -0.165235321661    3.694768361598   -0.018978377026
 H    0.749644678339    3.105108361598   -0.058328377026
 N   -1.618335321661    5.326898361598    0.038371622974
 H   -2.050915321661    6.244758361598    0.052401622974
 C   -2.280975321661    4.134908361598    0.077841622974
 H   -3.362545321661    4.055108361598    0.129581622974
 N   -1.421195321661    3.113748361598    0.044421622974
 K   -0.363515321661    0.796438361598    0.011361622974
 N    1.629373321552   -3.569854639878   -0.050930278683
 C    0.373414300003   -4.150867353019    0.012469622419
 H   -0.541456701524   -3.561216235037    0.051821232639
 C    0.474330908412   -5.533851871132    0.017301775900
 H   -0.267503922897   -6.324813901252    0.057704443711
 N    1.826513086903   -5.783003255998   -0.044877530056
 H    2.259095685500   -6.700856259903   -0.058899192396
 C    2.489153554038   -4.591017039681   -0.084345568509
 H    3.570730190948   -4.511216755872   -0.136084873627
