19

 C   -0.362984717839    5.289895445838   -0.020781771779
 H    0.378855282161    6.080855445838   -0.061181771779
 C   -0.262064717839    3.906915445838   -0.015951771779
 H    0.652815282161    3.317255445838   -0.055301771779
 N   -1.715164717839    5.539045445838    0.041398228221
 H   -2.147744717839    6.456905445838    0.055428228221
 C   -2.377804717839    4.347055445838    0.080868228221
 H   -3.459374717839    4.267255445838    0.132608228221
 N   -1.518024717839    3.325895445838    0.047448228221
 K   -0.460344717839    1.008585445838    0.014388228221
 N    1.781655005775   -3.903494180824   -0.055690161143
 C    0.525695984226   -4.484506893964    0.007709739959
 H   -0.389175017301   -3.894855775982    0.047061350179
 C    0.626612592635   -5.867491412077    0.012541893440
 H   -0.115222238674   -6.658453442197    0.052944561251
 N    1.978794771126   -6.116642796944   -0.049637412516
 H    2.411377369723   -7.034495800848   -0.063659074856
 C    2.641435238261   -4.924656580626   -0.089105450969
 H    3.723011875171   -4.844856296817   -0.140844756087
