19

 C   -0.379122950535    5.325253293211   -0.020277337571
 H    0.362717049465    6.116213293211   -0.060677337571
 C   -0.278202950535    3.942273293211   -0.015447337571
 H    0.636677049465    3.352613293211   -0.054797337571
 N   -1.731302950535    5.574403293211    0.041902662429
 H   -2.163882950535    6.492263293211    0.055932662429
 C   -2.393942950535    4.382413293211    0.081372662429
 H   -3.475512950535    4.302613293211    0.133112662429
 N   -1.534162950535    3.361253293211    0.047952662429
 K   -0.476482950535    1.043943293211    0.014892662429
 N    1.807035286478   -3.959100770981   -0.056483474886
 C    0.551076264930   -4.540113484122    0.006916426216
 H   -0.363794736597   -3.950462366139    0.046268036436
 C    0.651992873339   -5.923098002235    0.011748579697
 H   -0.089841957970   -6.714060032355    0.052151247508
 N    2.004175051830   -6.172249387101   -0.050430726260
 H    2.436757650427   -7.090102391006   -0.064452388599
 C    2.666815518965   -4.980263170783   -0.089898764712
 H    3.748392155875   -4.900462886974   -0.141638069830
