19

 C   -0.395261183232    5.360611140584   -0.019772903363
 H    0.346578816768    6.151571140584   -0.060172903363
 C   -0.294341183232    3.977631140584   -0.014942903363
 H    0.620538816768    3.387971140584   -0.054292903363
 N   -1.747441183232    5.609761140584    0.042407096637
 H   -2.180021183232    6.527621140584    0.056437096637
 C   -2.410081183232    4.417771140584    0.081877096637
 H   -3.491651183232    4.337971140584    0.133617096637
 N   -1.550301183232    3.396611140584    0.048457096637
 K   -0.492621183232    1.079301140584    0.015397096637
 N    1.832415567182   -4.014707361139   -0.057276788629
 C    0.576456545634   -4.595720074279    0.006123112472
 H   -0.338414455893   -4.006068956297    0.045474722693
 C    0.677373154042   -5.978704592392    0.010955265954
 H   -0.064461677266   -6.769666622512    0.051357933764
 N    2.029555332534   -6.227855977259   -0.051224040003
 H    2.462137931131   -7.145708981163   -0.065245702343
 C    2.692195799669   -5.035869760941   -0.090692078456
 H    3.773772436579   -4.956069477132   -0.142431383574
