19

 C   -0.492090579410    5.572758224824   -0.016746298116
 H    0.249749420590    6.363718224824   -0.057146298116
 C   -0.391170579410    4.189778224824   -0.011916298116
 H    0.523709420590    3.600118224824   -0.051266298116
 N   -1.844270579410    5.821908224824    0.045433701884
 H   -2.276850579410    6.739768224824    0.059463701884
 C   -2.506910579410    4.629918224824    0.084903701884
 H   -3.588480579410    4.550118224824    0.136643701884
 N   -1.647130579410    3.608758224824    0.051483701884
 K   -0.589450579410    1.291448224824    0.018423701884
 N    1.984697251405   -4.348346902084   -0.062036671089
 C    0.728738229857   -4.929359615224    0.001363230012
 H   -0.186132771670   -4.339708497242    0.040714840233
 C    0.829654838265   -6.312344133337    0.006195383493
 H    0.087820006957   -7.103306163457    0.046598051304
 N    2.181837016757   -6.561495518204   -0.055983922463
 H    2.614419615354   -7.479348522108   -0.070005584803
 C    2.844477483892   -5.369509301886   -0.095451960916
 H    3.926054120802   -5.289709018077   -0.147191266034
