19

 C   -0.572781742892    5.749547461690   -0.014224127077
 H    0.169058257108    6.540507461690   -0.054624127077
 C   -0.471861742892    4.366567461690   -0.009394127077
 H    0.443018257108    3.776907461690   -0.048744127077
 N   -1.924961742892    5.998697461690    0.047955872923
 H   -2.357541742892    6.916557461690    0.061985872923
 C   -2.587601742892    4.806707461690    0.087425872923
 H   -3.669171742892    4.726907461690    0.139165872923
 N   -1.727821742892    3.785547461690    0.054005872923
 K   -0.670141742892    1.468237461690    0.020945872923
 N    2.111598654924   -4.626379852871   -0.066003239806
 C    0.855639633376   -5.207392566012   -0.002603338705
 H   -0.059231368151   -4.617741448030    0.036748271516
 C    0.956556241785   -6.590377084125    0.002228814777
 H    0.214721410476   -7.381339114245    0.042631482588
 N    2.308738420276   -6.839528468992   -0.059950491180
 H    2.741321018873   -7.757381472896   -0.073972153519
 C    2.971378887411   -5.647542252674   -0.099418529633
 H    4.052955524321   -5.567741968865   -0.151157834751
