19

 C   -0.653472906374    5.926336698556   -0.011701956037
 H    0.088367093626    6.717296698556   -0.052101956037
 C   -0.552552906374    4.543356698556   -0.006871956037
 H    0.362327093626    3.953696698556   -0.046221956037
 N   -2.005652906374    6.175486698556    0.050478043963
 H   -2.438232906374    7.093346698556    0.064508043963
 C   -2.668292906374    4.983496698556    0.089948043963
 H   -3.749862906374    4.903696698556    0.141688043963
 N   -1.808512906374    3.962336698556    0.056528043963
 K   -0.750832906374    1.645026698556    0.023468043963
 N    2.238500058444   -4.904412803659   -0.069969808523
 C    0.982541036895   -5.485425516800   -0.006569907421
 H    0.067670035368   -4.895774398817    0.032781702799
 C    1.083457645304   -6.868410034913   -0.001737753940
 H    0.341622813996   -7.659372065033    0.038664913871
 N    2.435639823795   -7.117561419779   -0.063917059897
 H    2.868222422392   -8.035414423684   -0.077938722236
 C    3.098280290930   -5.925575203461   -0.103385098349
 H    4.179856927841   -5.845774919652   -0.155124403467
