19

 C   -0.701887604464    6.032410240676   -0.010188653414
 H    0.039952395536    6.823370240676   -0.050588653414
 C   -0.600967604464    4.649430240676   -0.005358653414
 H    0.313912395536    4.059770240676   -0.044708653414
 N   -2.054067604464    6.281560240676    0.051991346586
 H   -2.486647604464    7.199420240676    0.066021346586
 C   -2.716707604464    5.089570240676    0.091461346586
 H   -3.798277604464    5.009770240676    0.143201346586
 N   -1.856927604464    4.068410240676    0.058041346586
 K   -0.799247604464    1.751100240676    0.024981346586
 N    2.314640900555   -5.071232574132   -0.072349749753
 C    1.058681879007   -5.652245287272   -0.008949848652
 H    0.143810877479   -5.062594169290    0.030401761569
 C    1.159598487415   -7.035229805385   -0.004117695170
 H    0.417763656107   -7.826191835505    0.036284972641
 N    2.511780665907   -7.284381190252   -0.066297001127
 H    2.944363264504   -8.202234194156   -0.080318663466
 C    3.174421133042   -6.092394973934   -0.105765039580
 H    4.255997769952   -6.012594690125   -0.157504344698
