19

 C   -0.734164069857    6.103125935422   -0.009179784998
 H    0.007675930143    6.894085935422   -0.049579784998
 C   -0.633244069857    4.720145935422   -0.004349784998
 H    0.281635930143    4.130485935422   -0.043699784998
 N   -2.086344069857    6.352275935422    0.053000215002
 H   -2.518924069857    7.270135935422    0.067030215002
 C   -2.748984069857    5.160285935422    0.092470215002
 H   -3.830554069857    5.080485935422    0.144210215002
 N   -1.889204069857    4.139125935422    0.059050215002
 K   -0.831524069857    1.821815935422    0.025990215002
 N    2.365401461963   -5.182445754447   -0.073936377240
 C    1.109442440414   -5.763458467587   -0.010536476138
 H    0.194571438887   -5.173807349605    0.028815134082
 C    1.210359048823   -7.146442985700   -0.005704322657
 H    0.468524217515   -7.937405015820    0.034698345154
 N    2.562541227314   -7.395594370567   -0.067883628613
 H    2.995123825911   -8.313447374471   -0.081905290953
 C    3.225181694450   -6.203608154249   -0.107351667066
 H    4.306758331360   -6.123807870440   -0.159090972184
