19

 C   -0.750302302553    6.138483782795   -0.008675350790
 H   -0.008462302553    6.929443782795   -0.049075350790
 C   -0.649382302553    4.755503782795   -0.003845350790
 H    0.265497697447    4.165843782795   -0.043195350790
 N   -2.102482302553    6.387633782795    0.053504649210
 H   -2.535062302553    7.305493782795    0.067534649210
 C   -2.765122302553    5.195643782795    0.092974649210
 H   -3.846692302553    5.115843782795    0.144714649210
 N   -1.905342302553    4.174483782795    0.059554649210
 K   -0.847662302553    1.857173782795    0.026494649210
 N    2.390781742667   -5.238052344604   -0.074729690983
 C    1.134822721118   -5.819065057745   -0.011329789882
 H    0.219951719591   -5.229413939763    0.028021820339
 C    1.235739329527   -7.202049575858   -0.006497636400
 H    0.493904498219   -7.993011605978    0.033905031411
 N    2.587921508018   -7.451200960724   -0.068676942357
 H    3.020504106615   -8.369053964629   -0.082698604696
 C    3.250561975153   -6.259214744406   -0.108144980810
 H    4.332138612064   -6.179414460597   -0.159884285928
