19

 C   -0.830993466035    6.315273019661   -0.006153179751
 H   -0.089153466035    7.106233019661   -0.046553179751
 C   -0.730073466035    4.932293019661   -0.001323179751
 H    0.184806533965    4.342633019661   -0.040673179751
 N   -2.183173466035    6.564423019661    0.056026820249
 H   -2.615753466035    7.482283019661    0.070056820249
 C   -2.845813466035    5.372433019661    0.095496820249
 H   -3.927383466035    5.292633019661    0.147236820249
 N   -1.986033466035    4.351273019661    0.062076820249
 K   -0.928353466035    2.033963019661    0.029016820249
 N    2.517683146186   -5.516085295392   -0.078696259700
 C    1.261724124637   -6.097098008533   -0.015296358598
 H    0.346853123110   -5.507446890550    0.024055251622
 C    1.362640733046   -7.480082526646   -0.010464205117
 H    0.620805901738   -8.271044556766    0.029938462694
 N    2.714822911538   -7.729233911512   -0.072643511073
 H    3.147405510135   -8.647086915416   -0.086665173413
 C    3.377463378673   -6.537247695194   -0.112111549526
 H    4.459040015583   -6.457447411385   -0.163850854644
