19

 C   -0.847131698731    6.350630867035   -0.005648745543
 H   -0.105291698731    7.141590867035   -0.046048745543
 C   -0.746211698731    4.967650867035   -0.000818745543
 H    0.168668301269    4.377990867035   -0.040168745543
 N   -2.199311698731    6.599780867035    0.056531254457
 H   -2.631891698731    7.517640867035    0.070561254457
 C   -2.861951698731    5.407790867035    0.096001254457
 H   -3.943521698731    5.327990867035    0.147741254457
 N   -2.002171698731    4.386630867035    0.062581254457
 K   -0.944491698731    2.069320867035    0.029521254457
 N    2.543063426890   -5.571691885549   -0.079489573443
 C    1.287104405341   -6.152704598690   -0.016089672342
 H    0.372233403814   -5.563053480708    0.023261937879
 C    1.388021013750   -7.535689116803   -0.011257518860
 H    0.646186182442   -8.326651146923    0.029145148951
 N    2.740203192241   -7.784840501670   -0.073436824817
 H    3.172785790838   -8.702693505574   -0.087458487156
 C    3.402843659376   -6.592854285352   -0.112904863270
 H    4.484420296287   -6.513054001543   -0.164644168388
