19

 C   -0.863269931428    6.385988714408   -0.005144311336
 H   -0.121429931428    7.176948714408   -0.045544311336
 C   -0.762349931428    5.003008714408   -0.000314311336
 H    0.152530068572    4.413348714408   -0.039664311336
 N   -2.215449931428    6.635138714408    0.057035688664
 H   -2.648029931428    7.552998714408    0.071065688664
 C   -2.878089931428    5.443148714408    0.096505688664
 H   -3.959659931428    5.363348714408    0.148245688664
 N   -2.018309931428    4.421988714408    0.063085688664
 K   -0.960629931428    2.104678714408    0.030025688664
 N    2.568443707594   -5.627298475707   -0.080282887187
 C    1.312484686045   -6.208311188848   -0.016882986085
 H    0.397613684518   -5.618660070865    0.022468624135
 C    1.413401294454   -7.591295706961   -0.012050832604
 H    0.671566463146   -8.382257737081    0.028351835207
 N    2.765583472945   -7.840447091827   -0.074230138560
 H    3.198166071542   -8.758300095731   -0.088251800900
 C    3.428223940080   -6.648460875509   -0.113698177013
 H    4.509800576990   -6.568660591700   -0.165437482131
