19

 C   -1.024652258392    6.739567188140   -0.000099969257
 H   -0.282812258392    7.530527188140   -0.040499969257
 C   -0.923732258392    5.356587188140    0.004730030743
 H   -0.008852258392    4.766927188140   -0.034619969257
 N   -2.376832258392    6.988717188140    0.062080030743
 H   -2.809412258392    7.906577188140    0.076110030743
 C   -3.039472258392    5.796727188140    0.101550030743
 H   -4.121042258392    5.716927188140    0.153290030743
 N   -2.179692258392    4.775567188140    0.068130030743
 K   -1.122012258392    2.458257188140    0.035070030743
 N    2.822246514632   -6.183364377282   -0.088216024620
 C    1.566287493083   -6.764377090423   -0.024816123519
 H    0.651416491556   -6.174725972441    0.014535486702
 C    1.667204101492   -8.147361608536   -0.019983970037
 H    0.925369270184   -8.938323638656    0.020418697774
 N    3.019386279984   -8.396512993402   -0.082163275994
 H    3.451968878581   -9.314365997307   -0.096184938333
 C    3.682026747119   -7.204526777084   -0.121631314447
 H    4.763603384029   -7.124726493275   -0.173370619565
