19

 C   -1.073066956481    6.845640730260    0.001413333366
 H   -0.331226956481    7.636600730260   -0.038986666634
 C   -0.972146956481    5.462660730260    0.006243333366
 H   -0.057266956481    4.873000730260   -0.033106666634
 N   -2.425246956481    7.094790730260    0.063593333366
 H   -2.857826956481    8.012650730260    0.077623333366
 C   -3.087886956481    5.902800730260    0.103063333366
 H   -4.169456956481    5.823000730260    0.154803333366
 N   -2.228106956481    4.881640730260    0.069643333366
 K   -1.170426956481    2.564330730260    0.036583333366
 N    2.898387356744   -6.350184147755   -0.090595965850
 C    1.642428335195   -6.931196860896   -0.027196064749
 H    0.727557333668   -6.341545742913    0.012155545472
 C    1.743344943604   -8.314181379008   -0.022363911267
 H    1.001510112295   -9.105143409129    0.018038756544
 N    3.095527122095   -8.563332763875   -0.084543217224
 H    3.528109720692   -9.481185767779   -0.098564879563
 C    3.758167589230   -7.371346547557   -0.124011255677
 H    4.839744226140   -7.291546263748   -0.175750560795
