17

 N   -1.863617361399   -1.237534686708    0.240363905192
 C   -0.653429294555   -0.582328483032    0.244325529160
 N    0.579983119748   -1.181006177494    0.256363814065
 C    1.550406319804   -0.290830035883    0.244491357092
 N    1.347329482391    1.070808097631    0.237656196750
 H    2.151156607642    1.690768637386    0.155668174328
 N    2.875861074041   -0.709504757563    0.166144053857
 H    3.530397279373   -0.177701533163    0.733784830587
 H    2.954666161432   -1.710204901498    0.327727391846
 C    0.088055740074    1.756841801162    0.250609983427
 O    0.060475370969    2.985014885939    0.246521854999
 C   -0.984729385902    0.783148411888    0.256811181367
 N   -2.355802687671    0.969479457201    0.256735996651
 C   -2.849326182182   -0.269123556844    0.246405896986
 H   -3.906824095450   -0.523270178676    0.243459252560
 H   -1.988714357930   -2.244117771940    0.231704354161
 K    0.571929738973   -1.188230794592   -0.943587413263
