17

 N   -1.863342126395   -1.237287775806    0.281373835044
 C   -0.653154059551   -0.582081572130    0.285335459012
 N    0.580258354752   -1.180759266592    0.297373743917
 C    1.550681554808   -0.290583124981    0.285501286944
 N    1.347604717395    1.071055008533    0.278666126602
 H    2.151431842646    1.691015548288    0.196678104180
 N    2.876136309045   -0.709257846661    0.207153983709
 H    3.530672514377   -0.177454622261    0.774794760439
 H    2.954941396436   -1.709957990596    0.368737321698
 C    0.088330975078    1.757088712064    0.291619913279
 O    0.060750605973    2.985261796841    0.287531784851
 C   -0.984454150898    0.783395322790    0.297821111219
 N   -2.355527452667    0.969726368103    0.297745926503
 C   -2.849050947178   -0.268876645942    0.287415826838
 H   -3.906548860446   -0.523023267774    0.284469182412
 H   -1.988439122926   -2.243870861038    0.272714284013
 K    0.570862743847   -1.189187986539   -1.102569354632
