17

 N   -1.862929273889   -1.236917409452    0.342888729822
 C   -0.652741207045   -0.581711205776    0.346850353790
 N    0.580671207258   -1.180388900238    0.358888638695
 C    1.551094407314   -0.290212758627    0.347016181722
 N    1.348017569901    1.071425374887    0.340181021380
 H    2.151844695152    1.691385914642    0.258192998958
 N    2.876549161551   -0.708887480307    0.268668878487
 H    3.531085366883   -0.177084255907    0.836309655217
 H    2.955354248942   -1.709587624242    0.430252216476
 C    0.088743827584    1.757459078418    0.353134808057
 O    0.061163458479    2.985632163195    0.349046679629
 C   -0.984041298392    0.783765689144    0.359336005997
 N   -2.355114600161    0.970096734457    0.359260821281
 C   -2.848638094672   -0.268506279588    0.348930721616
 H   -3.906136007940   -0.522652901420    0.345984077190
 H   -1.988026270420   -2.243500494684    0.334229178791
 K    0.569262251159   -1.190623774460   -1.341042266687
