17

 N   -1.862241186379   -1.236300132196    0.445413554451
 C   -0.652053119535   -0.581093928520    0.449375178419
 N    0.581359294768   -1.179771622982    0.461413463324
 C    1.551782494824   -0.289595481371    0.449541006351
 N    1.348705657411    1.072042652143    0.442705846009
 H    2.152532782662    1.692003191898    0.360717823587
 N    2.877237249061   -0.708270203051    0.371193703116
 H    3.531773454393   -0.176466978651    0.938834479846
 H    2.956042336452   -1.708970346986    0.532777041105
 C    0.089431915094    1.758076355674    0.455659632686
 O    0.061851545989    2.986249440451    0.451571504258
 C   -0.983353210882    0.784382966400    0.461860830626
 N   -2.354426512651    0.970714011713    0.461785645910
 C   -2.847950007162   -0.267889002332    0.451455546245
 H   -3.905447920430   -0.522035624164    0.448508901819
 H   -1.987338182910   -2.242883217428    0.436754003420
 K    0.566594763345   -1.193016754328   -1.738497120111
