17

 N   -1.862103568877   -1.236176676745    0.465918519377
 C   -0.651915502033   -0.580970473069    0.469880143345
 N    0.581496912270   -1.179648167531    0.481918428250
 C    1.551920112326   -0.289472025920    0.470045971277
 N    1.348843274913    1.072166107594    0.463210810935
 H    2.152670400164    1.692126647349    0.381222788513
 N    2.877374866563   -0.708146747600    0.391698668042
 H    3.531911071895   -0.176343523200    0.959339444772
 H    2.956179953954   -1.708846891535    0.553282006031
 C    0.089569532596    1.758199811125    0.476164597612
 O    0.061989163491    2.986372895902    0.472076469184
 C   -0.983215593380    0.784506421851    0.482365795552
 N   -2.354288895149    0.970837467164    0.482290610836
 C   -2.847812389660   -0.267765546881    0.471960511171
 H   -3.905310302928   -0.521912168713    0.469013866745
 H   -1.987200565408   -2.242759761977    0.457258968346
 K    0.566061265783   -1.193495350301   -1.817988090795
