17

 N   -1.861965951375   -1.236053221294    0.486423484303
 C   -0.651777884531   -0.580847017618    0.490385108271
 N    0.581634529772   -1.179524712080    0.502423393176
 C    1.552057729828   -0.289348570469    0.490550936203
 N    1.348980892415    1.072289563045    0.483715775861
 H    2.152808017666    1.692250102800    0.401727753439
 N    2.877512484065   -0.708023292149    0.412203632968
 H    3.532048689397   -0.176220067749    0.979844409698
 H    2.956317571456   -1.708723436084    0.573786970957
 C    0.089707150098    1.758323266576    0.496669562538
 O    0.062126780993    2.986496351353    0.492581434110
 C   -0.983077975878    0.784629877302    0.502870760478
 N   -2.354151277647    0.970960922615    0.502795575762
 C   -2.847674772158   -0.267642091430    0.492465476097
 H   -3.905172685426   -0.521788713262    0.489518831671
 H   -1.987062947906   -2.242636306526    0.477763933272
 K    0.565527768220   -1.193973946275   -1.897479061480
