17

 N   -1.861828333873   -1.235929765843    0.506928449229
 C   -0.651640267029   -0.580723562167    0.510890073197
 N    0.581772147274   -1.179401256629    0.522928358102
 C    1.552195347330   -0.289225115018    0.511055901129
 N    1.349118509917    1.072413018496    0.504220740787
 H    2.152945635168    1.692373558251    0.422232718365
 N    2.877650101567   -0.707899836698    0.432708597894
 H    3.532186306899   -0.176096612298    1.000349374624
 H    2.956455188958   -1.708599980633    0.594291935883
 C    0.089844767600    1.758446722027    0.517174527464
 O    0.062264398495    2.986619806804    0.513086399036
 C   -0.982940358376    0.784753332753    0.523375725404
 N   -2.354013660145    0.971084378066    0.523300540688
 C   -2.847537154656   -0.267518635979    0.512970441023
 H   -3.905035067924   -0.521665257811    0.510023796597
 H   -1.986925330404   -2.242512851075    0.498268898198
 K    0.564994270657   -1.194452542248   -1.976970032165
