17

 N   -1.861690716372   -1.235806310392    0.527433414155
 C   -0.651502649528   -0.580600106716    0.531395038123
 N    0.581909764775   -1.179277801178    0.543433323028
 C    1.552332964831   -0.289101659567    0.531560866055
 N    1.349256127418    1.072536473947    0.524725705713
 H    2.153083252669    1.692497013702    0.442737683291
 N    2.877787719068   -0.707776381247    0.453213562820
 H    3.532323924400   -0.175973156847    1.020854339550
 H    2.956592806459   -1.708476525182    0.614796900809
 C    0.089982385101    1.758570177478    0.537679492390
 O    0.062402015996    2.986743262255    0.533591363962
 C   -0.982802740875    0.784876788204    0.543880690330
 N   -2.353876042644    0.971207833517    0.543805505614
 C   -2.847399537155   -0.267395180528    0.533475405949
 H   -3.904897450423   -0.521541802360    0.530528761523
 H   -1.986787712903   -2.242389395624    0.518773863124
 K    0.564460773094   -1.194931138222   -2.056461002850
