17

 N   -1.861553098870   -1.235682854940    0.547938379080
 C   -0.651365032026   -0.580476651264    0.551900003048
 N    0.582047382277   -1.179154345726    0.563938287953
 C    1.552470582333   -0.288978204115    0.552065830980
 N    1.349393744920    1.072659929399    0.545230670638
 H    2.153220870171    1.692620469154    0.463242648216
 N    2.877925336570   -0.707652925795    0.473718527745
 H    3.532461541902   -0.175849701395    1.041359304475
 H    2.956730423961   -1.708353069730    0.635301865734
 C    0.090120002603    1.758693632930    0.558184457315
 O    0.062539633498    2.986866717707    0.554096328887
 C   -0.982665123373    0.785000243656    0.564385655255
 N   -2.353738425142    0.971331288969    0.564310470539
 C   -2.847261919653   -0.267271725076    0.553980370874
 H   -3.904759832921   -0.521418346908    0.551033726448
 H   -1.986650095401   -2.242265940172    0.539278828049
 K    0.563927275532   -1.195409734196   -2.135951973535
