17

 N   -1.861140246364   -1.235312488587    0.609453273858
 C   -0.650952179520   -0.580106284911    0.613414897826
 N    0.582460234783   -1.178783979373    0.625453182731
 C    1.552883434839   -0.288607837762    0.613580725758
 N    1.349806597426    1.073030295752    0.606745565416
 H    2.153633722677    1.692990835507    0.524757542994
 N    2.878338189076   -0.707282559442    0.535233422523
 H    3.532874394408   -0.175479335042    1.102874199253
 H    2.957143276467   -1.707982703377    0.696816760512
 C    0.090532855109    1.759063999283    0.619699352093
 O    0.062952486004    2.987237084060    0.615611223665
 C   -0.982252270867    0.785370610009    0.625900550033
 N   -2.353325572636    0.971701655322    0.625825365317
 C   -2.846849067147   -0.266901358723    0.615495265652
 H   -3.904346980415   -0.521047980555    0.612548621226
 H   -1.986237242895   -2.241895573819    0.600793722827
 K    0.562326782844   -1.196845522116   -2.374424885589
