17

 N   -1.861002628862   -1.235189033136    0.629958238784
 C   -0.650814562018   -0.579982829460    0.633919862752
 N    0.582597852285   -1.178660523922    0.645958147657
 C    1.553021052341   -0.288484382311    0.634085690684
 N    1.349944214928    1.073153751203    0.627250530342
 H    2.153771340179    1.693114290958    0.545262507920
 N    2.878475806578   -0.707159103991    0.555738387449
 H    3.533012011910   -0.175355879591    1.123379164179
 H    2.957280893969   -1.707859247926    0.717321725438
 C    0.090670472611    1.759187454734    0.640204317019
 O    0.063090103506    2.987360539511    0.636116188591
 C   -0.982114653365    0.785494065460    0.646405514959
 N   -2.353187955134    0.971825110773    0.646330330243
 C   -2.846711449645   -0.266777903272    0.636000230578
 H   -3.904209362913   -0.520924525104    0.633053586152
 H   -1.986099625393   -2.241772118368    0.621298687753
 K    0.561793285281   -1.197324118090   -2.453915856274
