17

 N   -1.860865011360   -1.235065577684    0.650463203710
 C   -0.650676944516   -0.579859374008    0.654424827678
 N    0.582735469787   -1.178537068470    0.666463112583
 C    1.553158669843   -0.288360926859    0.654590655610
 N    1.350081832430    1.073277206655    0.647755495268
 H    2.153908957681    1.693237746410    0.565767472846
 N    2.878613424080   -0.707035648539    0.576243352375
 H    3.533149629412   -0.175232424139    1.143884129105
 H    2.957418511471   -1.707735792474    0.737826690364
 C    0.090808090113    1.759310910186    0.660709281945
 O    0.063227721008    2.987483994963    0.656621153517
 C   -0.981977035863    0.785617520912    0.666910479885
 N   -2.353050337632    0.971948566225    0.666835295169
 C   -2.846573832143   -0.266654447820    0.656505195504
 H   -3.904071745411   -0.520801069652    0.653558551078
 H   -1.985962007891   -2.241648662916    0.641803652679
 K    0.561259787718   -1.197802714063   -2.533406826958
