17

 N   -1.860727393858   -1.234942122233    0.670968168636
 C   -0.650539327014   -0.579735918557    0.674929792604
 N    0.582873087289   -1.178413613019    0.686968077509
 C    1.553296287345   -0.288237471408    0.675095620536
 N    1.350219449932    1.073400662106    0.668260460194
 H    2.154046575183    1.693361201861    0.586272437772
 N    2.878751041582   -0.706912193088    0.596748317301
 H    3.533287246914   -0.175108968688    1.164389094031
 H    2.957556128973   -1.707612337023    0.758331655290
 C    0.090945707615    1.759434365637    0.681214246871
 O    0.063365338510    2.987607450414    0.677126118443
 C   -0.981839418361    0.785740976363    0.687415444811
 N   -2.352912720130    0.972072021676    0.687340260095
 C   -2.846436214641   -0.266530992369    0.677010160430
 H   -3.903934127909   -0.520677614201    0.674063516004
 H   -1.985824390389   -2.241525207465    0.662308617605
 K    0.560726290155   -1.198281310037   -2.612897797643
