17

 N   -1.860589776356   -1.234818666782    0.691473133561
 C   -0.650401709512   -0.579612463106    0.695434757529
 N    0.583010704791   -1.178290157568    0.707473042434
 C    1.553433904847   -0.288114015957    0.695600585461
 N    1.350357067434    1.073524117557    0.688765425119
 H    2.154184192685    1.693484657312    0.606777402697
 N    2.878888659084   -0.706788737637    0.617253282226
 H    3.533424864416   -0.174985513237    1.184894058956
 H    2.957693746475   -1.707488881572    0.778836620215
 C    0.091083325117    1.759557821088    0.701719211796
 O    0.063502956012    2.987730905865    0.697631083368
 C   -0.981701800859    0.785864431814    0.707920409736
 N   -2.352775102628    0.972195477127    0.707845225020
 C   -2.846298597139   -0.266407536918    0.697515125355
 H   -3.903796510407   -0.520554158750    0.694568480929
 H   -1.985686772887   -2.241401752014    0.682813582530
 K    0.560192792593   -1.198759906011   -2.692388768328
