17

 N   -1.859901688846   -1.234201389526    0.793997958191
 C   -0.649713622002   -0.578995185850    0.797959582159
 N    0.583698792301   -1.177672880312    0.809997867064
 C    1.554121992357   -0.287496738701    0.798125410091
 N    1.351045154944    1.074141394813    0.791290249749
 H    2.154872280195    1.694101934568    0.709302227327
 N    2.879576746594   -0.706171460381    0.719778106856
 H    3.534112951926   -0.174368235981    1.287418883586
 H    2.958381833985   -1.706871604316    0.881361444845
 C    0.091771412627    1.760175098344    0.804244036426
 O    0.064191043522    2.988348183121    0.800155907998
 C   -0.981013713349    0.786481709070    0.810445234366
 N   -2.352087015118    0.972812754383    0.810370049650
 C   -2.845610509629   -0.265790259662    0.800039949985
 H   -3.903108422897   -0.519936881494    0.797093305559
 H   -1.984998685377   -2.240784474758    0.785338407160
 K    0.557525304779   -1.201152885879   -3.089843621752
