17

 N   -1.859764071344   -1.234077934075    0.814502923117
 C   -0.649576004500   -0.578871730399    0.818464547085
 N    0.583836409803   -1.177549424861    0.830502831990
 C    1.554259609859   -0.287373283250    0.818630375017
 N    1.351182772446    1.074264850264    0.811795214675
 H    2.155009897697    1.694225390019    0.729807192253
 N    2.879714364096   -0.706048004930    0.740283071782
 H    3.534250569428   -0.174244780530    1.307923848512
 H    2.958519451487   -1.706748148865    0.901866409771
 C    0.091909030129    1.760298553795    0.824749001352
 O    0.064328661024    2.988471638572    0.820660872924
 C   -0.980876095847    0.786605164521    0.830950199292
 N   -2.351949397616    0.972936209834    0.830875014576
 C   -2.845472892127   -0.265666804211    0.820544914911
 H   -3.902970805395   -0.519813426043    0.817598270485
 H   -1.984861067875   -2.240661019307    0.805843372086
 K    0.556991807216   -1.201631481852   -3.169334592437
