17

 N   -1.859213601337   -1.233584112270    0.896522782820
 C   -0.649025534493   -0.578377908594    0.900484406788
 N    0.584386879810   -1.177055603056    0.912522691693
 C    1.554810079866   -0.286879461445    0.900650234720
 N    1.351733242453    1.074758672069    0.893815074378
 H    2.155560367704    1.694719211824    0.811827051956
 N    2.880264834103   -0.705554183125    0.822302931485
 H    3.534801039435   -0.173750958725    1.389943708215
 H    2.959069921494   -1.706254327060    0.983886269474
 C    0.092459500136    1.760792375600    0.906768861055
 O    0.064879131031    2.988965460377    0.902680732627
 C   -0.980325625840    0.787098986326    0.912970058995
 N   -2.351398927609    0.973430031639    0.912894874279
 C   -2.844922422120   -0.265172982406    0.902564774614
 H   -3.902420335388   -0.519319604238    0.899618130188
 H   -1.984310597868   -2.240167197502    0.887863231789
 K    0.554857816965   -1.203545865746   -3.487298475176
