17

 N   -1.859075983835   -1.233460656819    0.917027747746
 C   -0.648887916991   -0.578254453143    0.920989371714
 N    0.584524497312   -1.176932147605    0.933027656619
 C    1.554947697368   -0.286756005994    0.921155199646
 N    1.351870859955    1.074882127520    0.914320039304
 H    2.155697985206    1.694842667275    0.832332016882
 N    2.880402451605   -0.705430727674    0.842807896411
 H    3.534938656937   -0.173627503274    1.410448673141
 H    2.959207538996   -1.706130871609    1.004391234400
 C    0.092597117638    1.760915831051    0.927273825981
 O    0.065016748533    2.989088915828    0.923185697553
 C   -0.980188008338    0.787222441777    0.933475023921
 N   -2.351261310107    0.973553487090    0.933399839205
 C   -2.844784804618   -0.265049526955    0.923069739540
 H   -3.902282717886   -0.519196148787    0.920123095114
 H   -1.984172980366   -2.240043742051    0.908368196715
 K    0.554324319403   -1.204024461720   -3.566789445861
