17

 N   -1.858938366333   -1.233337201368    0.937532712672
 C   -0.648750299489   -0.578130997692    0.941494336640
 N    0.584662114814   -1.176808692154    0.953532621545
 C    1.555085314870   -0.286632550543    0.941660164572
 N    1.352008477457    1.075005582971    0.934825004230
 H    2.155835602708    1.694966122726    0.852836981808
 N    2.880540069107   -0.705307272223    0.863312861337
 H    3.535076274439   -0.173504047823    1.430953638067
 H    2.959345156498   -1.706007416158    1.024896199326
 C    0.092734735140    1.761039286502    0.947778790907
 O    0.065154366035    2.989212371279    0.943690662479
 C   -0.980050390836    0.787345897228    0.953979988847
 N   -2.351123692605    0.973676942541    0.953904804131
 C   -2.844647187116   -0.264926071504    0.943574704466
 H   -3.902145100384   -0.519072693336    0.940628060040
 H   -1.984035362864   -2.239920286600    0.928873161641
 K    0.553790821840   -1.204503057694   -3.646280416546
