17

 N   -1.858663131329   -1.233090290465    0.978542642524
 C   -0.648475064485   -0.577884086789    0.982504266492
 N    0.584937349818   -1.176561781251    0.994542551397
 C    1.555360549874   -0.286385639640    0.982670094424
 N    1.352283712461    1.075252493874    0.975834934082
 H    2.156110837712    1.695213033629    0.893846911660
 N    2.880815304111   -0.705060361320    0.904322791189
 H    3.535351509443   -0.173257136920    1.471963567919
 H    2.959620391502   -1.705760505255    1.065906129178
 C    0.093009970144    1.761286197405    0.988788720759
 O    0.065429601039    2.989459282182    0.984700592331
 C   -0.979775155832    0.787592808131    0.994989918699
 N   -2.350848457601    0.973923853444    0.994914733983
 C   -2.844371952112   -0.264679160601    0.984584634318
 H   -3.901869865380   -0.518825782433    0.981637989892
 H   -1.983760127860   -2.239673375697    0.969883091493
 K    0.552723826714   -1.205460249641   -3.805262357915
