17

 N   -1.858525513827   -1.232966835014    0.999047607450
 C   -0.648337446983   -0.577760631338    1.003009231418
 N    0.585074967320   -1.176438325800    1.015047516323
 C    1.555498167376   -0.286262184189    1.003175059350
 N    1.352421329963    1.075375949325    0.996339899008
 H    2.156248455214    1.695336489080    0.914351876586
 N    2.880952921613   -0.704936905869    0.924827756115
 H    3.535489126945   -0.173133681469    1.492468532845
 H    2.959758009004   -1.705637049804    1.086411094104
 C    0.093147587646    1.761409652856    1.009293685685
 O    0.065567218541    2.989582737633    1.005205557257
 C   -0.979637538330    0.787716263582    1.015494883625
 N   -2.350710840099    0.974047308895    1.015419698909
 C   -2.844234334610   -0.264555705150    1.005089599244
 H   -3.901732247878   -0.518702326982    1.002142954818
 H   -1.983622510358   -2.239549920246    0.990388056419
 K    0.552190329152   -1.205938845614   -3.884753328600
