17

 N   -1.857975043819   -1.232473013209    1.081067467153
 C   -0.647786976975   -0.577266809533    1.085029091121
 N    0.585625437328   -1.175944503995    1.097067376026
 C    1.556048637384   -0.285768362384    1.085194919053
 N    1.352971799971    1.075869771130    1.078359758711
 H    2.156798925222    1.695830310885    0.996371736289
 N    2.881503391621   -0.704443084064    1.006847615818
 H    3.536039596953   -0.172639859664    1.574488392548
 H    2.960308479012   -1.705143227999    1.168430953807
 C    0.093698057654    1.761903474661    1.091313545388
 O    0.066117688549    2.990076559438    1.087225416960
 C   -0.979087068322    0.788210085387    1.097514743328
 N   -2.350160370091    0.974541130700    1.097439558612
 C   -2.843683864602   -0.264061883345    1.087109458947
 H   -3.901181777870   -0.518208505177    1.084162814521
 H   -1.983072040350   -2.239056098441    1.072407916122
 K    0.550056338901   -1.207853229509   -4.202717211339
