17

 N   -1.857699808816   -1.232226102307    1.122077397005
 C   -0.647511741972   -0.577019898631    1.126039020973
 N    0.585900672331   -1.175697593093    1.138077305878
 C    1.556323872387   -0.285521451482    1.126204848905
 N    1.353247034974    1.076116682032    1.119369688563
 H    2.157074160225    1.696077221787    1.037381666141
 N    2.881778626624   -0.704196173162    1.047857545670
 H    3.536314831956   -0.172392948762    1.615498322400
 H    2.960583714015   -1.704896317097    1.209440883659
 C    0.093973292657    1.762150385563    1.132323475240
 O    0.066392923552    2.990323470340    1.128235346812
 C   -0.978811833319    0.788456996289    1.138524673180
 N   -2.349885135088    0.974788041602    1.138449488464
 C   -2.843408629599   -0.263814972443    1.128119388799
 H   -3.900906542867   -0.517961594275    1.125172744373
 H   -1.982796805347   -2.238809187539    1.113417845974
 K    0.548989343775   -1.208810421456   -4.361699152709
