17

 N   -1.857562191314   -1.232102646856    1.142582361931
 C   -0.647374124470   -0.576896443180    1.146543985899
 N    0.586038289833   -1.175574137642    1.158582270804
 C    1.556461489889   -0.285397996031    1.146709813831
 N    1.353384652476    1.076240137483    1.139874653489
 H    2.157211777727    1.696200677238    1.057886631067
 N    2.881916244126   -0.704072717711    1.068362510596
 H    3.536452449458   -0.172269493311    1.636003287326
 H    2.960721331517   -1.704772861646    1.229945848585
 C    0.094110910159    1.762273841014    1.152828440166
 O    0.066530541054    2.990446925791    1.148740311738
 C   -0.978674215817    0.788580451740    1.159029638106
 N   -2.349747517586    0.974911497053    1.158954453390
 C   -2.843271012097   -0.263691516992    1.148624353725
 H   -3.900768925365   -0.517838138824    1.145677709299
 H   -1.982659187845   -2.238685732088    1.133922810900
 K    0.548455846213   -1.209289017429   -4.441190123393
