17

 N   -1.857424573812   -1.231979191405    1.163087326857
 C   -0.647236506968   -0.576772987729    1.167048950825
 N    0.586175907335   -1.175450682191    1.179087235730
 C    1.556599107391   -0.285274540580    1.167214778757
 N    1.353522269978    1.076363592934    1.160379618415
 H    2.157349395229    1.696324132689    1.078391595993
 N    2.882053861628   -0.703949262260    1.088867475522
 H    3.536590066960   -0.172146037860    1.656508252252
 H    2.960858949019   -1.704649406195    1.250450813511
 C    0.094248527661    1.762397296465    1.173333405092
 O    0.066668158556    2.990570381242    1.169245276664
 C   -0.978536598315    0.788703907191    1.179534603032
 N   -2.349609900084    0.975034952504    1.179459418316
 C   -2.843133394595   -0.263568061541    1.169129318651
 H   -3.900631307863   -0.517714683373    1.166182674225
 H   -1.982521570343   -2.238562276637    1.154427775826
 K    0.547922348650   -1.209767613403   -4.520681094078
