17

 N   -1.857286956310   -1.231855735953    1.183592291782
 C   -0.647098889466   -0.576649532277    1.187553915750
 N    0.586313524837   -1.175327226739    1.199592200655
 C    1.556736724893   -0.285151085128    1.187719743682
 N    1.353659887480    1.076487048386    1.180884583340
 H    2.157487012731    1.696447588141    1.098896560918
 N    2.882191479130   -0.703825806808    1.109372440447
 H    3.536727684462   -0.172022582408    1.677013217177
 H    2.960996566521   -1.704525950743    1.270955778436
 C    0.094386145163    1.762520751917    1.193838370017
 O    0.066805776058    2.990693836694    1.189750241589
 C   -0.978398980813    0.788827362643    1.200039567957
 N   -2.349472282582    0.975158407956    1.199964383241
 C   -2.842995777093   -0.263444606089    1.189634283576
 H   -3.900493690361   -0.517591227921    1.186687639150
 H   -1.982383952841   -2.238438821185    1.174932740751
 K    0.547388851087   -1.210246209377   -4.600172064763
