17

 N   -1.857149338808   -1.231732280502    1.204097256708
 C   -0.646961271964   -0.576526076826    1.208058880676
 N    0.586451142339   -1.175203771288    1.220097165581
 C    1.556874342395   -0.285027629677    1.208224708608
 N    1.353797504982    1.076610503837    1.201389548266
 H    2.157624630233    1.696571043592    1.119401525844
 N    2.882329096632   -0.703702351357    1.129877405373
 H    3.536865301964   -0.171899126957    1.697518182103
 H    2.961134184023   -1.704402495292    1.291460743362
 C    0.094523762665    1.762644207368    1.214343334943
 O    0.066943393560    2.990817292145    1.210255206515
 C   -0.978261363311    0.788950818094    1.220544532883
 N   -2.349334665080    0.975281863407    1.220469348167
 C   -2.842858159591   -0.263321150638    1.210139248502
 H   -3.900356072859   -0.517467772470    1.207192604076
 H   -1.982246335339   -2.238315365734    1.195437705677
 K    0.546855353524   -1.210724805350   -4.679663035448
