17

 N   -1.856736486302   -1.231361914149    1.265612151486
 C   -0.646548419458   -0.576155710473    1.269573775454
 N    0.586863994845   -1.174833404935    1.281612060359
 C    1.557287194901   -0.284657263324    1.269739603386
 N    1.354210357488    1.076980870190    1.262904443044
 H    2.158037482739    1.696941409945    1.180916420622
 N    2.882741949138   -0.703331985004    1.191392300151
 H    3.537278154470   -0.171528760604    1.759033076881
 H    2.961547036529   -1.704032128939    1.352975638140
 C    0.094936615171    1.763014573721    1.275858229721
 O    0.067356246066    2.991187658498    1.271770101293
 C   -0.977848510805    0.789321184447    1.282059427661
 N   -2.348921812574    0.975652229760    1.281984242945
 C   -2.842445307085   -0.262950784285    1.271654143280
 H   -3.899943220353   -0.517097406117    1.268707498854
 H   -1.981833482833   -2.237944999381    1.256952600455
 K    0.545254860836   -1.212160593271   -4.918135947502
