17

 N   -1.855910781290   -1.230621181441    1.388641941041
 C   -0.645722714446   -0.575414977765    1.392603565009
 N    0.587689699857   -1.174092672227    1.404641849914
 C    1.558112899913   -0.283916530616    1.392769392941
 N    1.355036062500    1.077721602898    1.385934232599
 H    2.158863187751    1.697682142653    1.303946210177
 N    2.883567654150   -0.702591252296    1.314422089706
 H    3.538103859482   -0.170788027896    1.882062866436
 H    2.962372741541   -1.703291396231    1.476005427695
 C    0.095762320183    1.763755306429    1.398888019276
 O    0.068181951078    2.991928391206    1.394799890848
 C   -0.977022805793    0.790061917155    1.405089217216
 N   -2.348096107562    0.976392962468    1.405014032500
 C   -2.841619602073   -0.262210051577    1.394683932835
 H   -3.899117515341   -0.516356673409    1.391737288409
 H   -1.981007777821   -2.237204266673    1.379982390010
 K    0.542053875460   -1.215032169112   -5.395081771611
