17

 N   -1.855635546287   -1.230374270539    1.429651870893
 C   -0.645447479443   -0.575168066863    1.433613494861
 N    0.587964934860   -1.173845761325    1.445651779766
 C    1.558388134916   -0.283669619714    1.433779322793
 N    1.355311297503    1.077968513800    1.426944162451
 H    2.159138422754    1.697929053555    1.344956140029
 N    2.883842889153   -0.702344341394    1.355432019558
 H    3.538379094485   -0.170541116994    1.923072796288
 H    2.962647976544   -1.703044485329    1.517015357547
 C    0.096037555186    1.764002217331    1.439897949128
 O    0.068457186081    2.992175302108    1.435809820700
 C   -0.976747570790    0.790308828057    1.446099147068
 N   -2.347820872559    0.976639873370    1.446023962352
 C   -2.841344367070   -0.261963140675    1.435693862687
 H   -3.898842280338   -0.516109762507    1.432747218261
 H   -1.980732542818   -2.236957355771    1.420992319862
 K    0.540986880335   -1.215989361060   -5.554063712981
