17

 N   -1.855222693781   -1.230003904185    1.491166765670
 C   -0.645034626937   -0.574797700509    1.495128389638
 N    0.588377787366   -1.173475394971    1.507166674543
 C    1.558800987422   -0.283299253360    1.495294217570
 N    1.355724150009    1.078338880154    1.488459057228
 H    2.159551275260    1.698299419909    1.406471034806
 N    2.884255741659   -0.701973975040    1.416946914335
 H    3.538791946991   -0.170170750640    1.984587691065
 H    2.963060829050   -1.702674118975    1.578530252324
 C    0.096450407692    1.764372583685    1.501412843905
 O    0.068870038587    2.992545668462    1.497324715477
 C   -0.976334718284    0.790679194411    1.507614041845
 N   -2.347408020053    0.977010239724    1.507538857129
 C   -2.840931514564   -0.261592774321    1.497208757464
 H   -3.898429427832   -0.515739396153    1.494262113038
 H   -1.980319690312   -2.236586989417    1.482507214639
 K    0.539386387646   -1.217425148980   -5.792536625035
