17

 N   -1.855085076279   -1.229880448734    1.511671730596
 C   -0.644897009435   -0.574674245058    1.515633354564
 N    0.588515404868   -1.173351939520    1.527671639469
 C    1.558938604924   -0.283175797909    1.515799182496
 N    1.355861767511    1.078462335605    1.508964022154
 H    2.159688892762    1.698422875360    1.426975999732
 N    2.884393359161   -0.701850519589    1.437451879261
 H    3.538929564493   -0.170047295189    2.005092655991
 H    2.963198446552   -1.702550663524    1.599035217250
 C    0.096588025194    1.764496039136    1.521917808831
 O    0.069007656089    2.992669123913    1.517829680403
 C   -0.976197100782    0.790802649862    1.528119006771
 N   -2.347270402551    0.977133695175    1.528043822055
 C   -2.840793897062   -0.261469318870    1.517713722390
 H   -3.898291810330   -0.515615940702    1.514767077964
 H   -1.980182072810   -2.236463533966    1.503012179565
 K    0.538852890084   -1.217903744954   -5.872027595720
