17

 N   -1.854947458777   -1.229756993283    1.532176695522
 C   -0.644759391933   -0.574550789607    1.536138319490
 N    0.588653022370   -1.173228484069    1.548176604395
 C    1.559076222426   -0.283052342458    1.536304147422
 N    1.355999385013    1.078585791056    1.529468987080
 H    2.159826510264    1.698546330811    1.447480964658
 N    2.884530976663   -0.701727064138    1.457956844187
 H    3.539067181995   -0.169923839738    2.025597620917
 H    2.963336064054   -1.702427208073    1.619540182176
 C    0.096725642696    1.764619494587    1.542422773757
 O    0.069145273591    2.992792579364    1.538334645329
 C   -0.976059483280    0.790926105313    1.548623971697
 N   -2.347132785049    0.977257150626    1.548548786981
 C   -2.840656279560   -0.261345863419    1.538218687316
 H   -3.898154192828   -0.515492485251    1.535272042890
 H   -1.980044455308   -2.236340078515    1.523517144491
 K    0.538319392521   -1.218382340928   -5.951518566405
