17

 N   -1.854534606271   -1.229386626929    1.593691590300
 C   -0.644346539427   -0.574180423253    1.597653214268
 N    0.589065874876   -1.172858117715    1.609691499173
 C    1.559489074932   -0.282681976104    1.597819042200
 N    1.356412237519    1.078956157410    1.590983881858
 H    2.160239362770    1.698916697165    1.508995859436
 N    2.884943829169   -0.701356697784    1.519471738965
 H    3.539480034501   -0.169553473384    2.087112515695
 H    2.963748916560   -1.702056841719    1.681055076954
 C    0.097138495202    1.764989860941    1.603937668535
 O    0.069558126097    2.993162945718    1.599849540107
 C   -0.975646630774    0.791296471667    1.610138866475
 N   -2.346719932543    0.977627516980    1.610063681759
 C   -2.840243427054   -0.260975497065    1.599733582094
 H   -3.897741340322   -0.515122118897    1.596786937668
 H   -1.979631602802   -2.235969712161    1.585032039269
 K    0.536718899833   -1.219818128848   -6.189991478459
