17

 N   -1.852607961244   -1.227658250613    1.880761099262
 C   -0.642419894400   -0.572452046937    1.884722723230
 N    0.590992519903   -1.171129741399    1.896761008135
 C    1.561415719959   -0.280953599788    1.884888551162
 N    1.358338882546    1.080684533726    1.878053390820
 H    2.162166007797    1.700645073481    1.796065368398
 N    2.886870474196   -0.699628321468    1.806541247927
 H    3.541406679528   -0.167825097068    2.374182024657
 H    2.965675561587   -1.700328465403    1.968124585916
 C    0.099065140229    1.766718237257    1.891007177497
 O    0.071484771124    2.994891322034    1.886919049069
 C   -0.973719985747    0.793024847983    1.897208375437
 N   -2.344793287516    0.979355893296    1.897133190721
 C   -2.838316782027   -0.259247120749    1.886803091056
 H   -3.895814695295   -0.513393742581    1.883856446630
 H   -1.977704957775   -2.234241335845    1.872101548231
 K    0.529249933955   -1.226518472478   -7.302865068046
