17

 N   -1.852332726240   -1.227411339710    1.921771029114
 C   -0.642144659396   -0.572205136034    1.925732653082
 N    0.591267754907   -1.170882830496    1.937770937987
 C    1.561690954963   -0.280706688885    1.925898481014
 N    1.358614117550    1.080931444629    1.919063320672
 H    2.162441242801    1.700891984384    1.837075298250
 N    2.887145709200   -0.699381410565    1.847551177779
 H    3.541681914532   -0.167578186165    2.415191954509
 H    2.965950796591   -1.700081554500    2.009134515768
 C    0.099340375233    1.766965148160    1.932017107349
 O    0.071760006128    2.995138232937    1.927928978921
 C   -0.973444750743    0.793271758886    1.938218305289
 N   -2.344518052512    0.979602804199    1.938143120573
 C   -2.838041547023   -0.259000209846    1.927813020908
 H   -3.895539460291   -0.513146831678    1.924866376482
 H   -1.977429722771   -2.233994424942    1.913111478083
 K    0.528182938829   -1.227475664426   -7.461847009416
