17

 N   -1.851919873734   -1.227040973357    1.983285923891
 C   -0.641731806890   -0.571834769681    1.987247547859
 N    0.591680607413   -1.170512464143    1.999285832764
 C    1.562103807469   -0.280336322532    1.987413375791
 N    1.359026970056    1.081301810982    1.980578215449
 H    2.162854095307    1.701262350737    1.898590193027
 N    2.887558561706   -0.699011044212    1.909066072556
 H    3.542094767038   -0.167207819812    2.476706849286
 H    2.966363649097   -1.699711188147    2.070649410545
 C    0.099753227739    1.767335514513    1.993532002126
 O    0.072172858634    2.995508599290    1.989443873698
 C   -0.973031898237    0.793642125239    1.999733200066
 N   -2.344105200006    0.979973170552    1.999658015350
 C   -2.837628694517   -0.258629843493    1.989327915685
 H   -3.895126607785   -0.512776465325    1.986381271259
 H   -1.977016870265   -2.233624058589    1.974626372860
 K    0.526582446141   -1.228911452346   -7.700319921470
