17

 N   -1.851782256232   -1.226917517905    2.003790888817
 C   -0.641594189388   -0.571711314229    2.007752512785
 N    0.591818224915   -1.170389008691    2.019790797690
 C    1.562241424971   -0.280212867080    2.007918340717
 N    1.359164587558    1.081425266434    2.001083180375
 H    2.162991712809    1.701385806189    1.919095157953
 N    2.887696179208   -0.698887588760    1.929571037482
 H    3.542232384540   -0.167084364360    2.497211814212
 H    2.966501266599   -1.699587732695    2.091154375471
 C    0.099890845241    1.767458969965    2.014036967052
 O    0.072310476136    2.995632054742    2.009948838624
 C   -0.972894280735    0.793765580691    2.020238164992
 N   -2.343967582504    0.980096626004    2.020162980276
 C   -2.837491077015   -0.258506388041    2.009832880611
 H   -3.894988990283   -0.512653009873    2.006886236185
 H   -1.976879252763   -2.233500603137    1.995131337786
 K    0.526048948578   -1.229390048320   -7.779810892155
