17

 N   -1.851644638731   -1.226794062454    2.024295853743
 C   -0.641456571887   -0.571587858778    2.028257477711
 N    0.591955842416   -1.170265553240    2.040295762616
 C    1.562379042472   -0.280089411629    2.028423305643
 N    1.359302205059    1.081548721885    2.021588145301
 H    2.163129330310    1.701509261640    1.939600122879
 N    2.887833796709   -0.698764133309    1.950076002408
 H    3.542370002041   -0.166960908909    2.517716779138
 H    2.966638884100   -1.699464277244    2.111659340397
 C    0.100028462742    1.767582425416    2.034541931978
 O    0.072448093637    2.995755510193    2.030453803550
 C   -0.972756663234    0.793889036142    2.040743129918
 N   -2.343829965003    0.980220081455    2.040667945202
 C   -2.837353459514   -0.258382932590    2.030337845537
 H   -3.894851372782   -0.512529554422    2.027391201111
 H   -1.976741635262   -2.233377147686    2.015636302712
 K    0.525515451015   -1.229868644294   -7.859301862840
