25

 C    4.036126889199    1.343424158807    0.000000000000
 H    3.303566889199    2.156954158807    0.000000000000
 H    4.675186889199    1.427434158807    0.890920000000
 H    4.675186889199    1.427434158807   -0.890920000000
 C    3.298666889199    0.027114158807    0.000000000000
 O    2.048976889199   -0.042535841193    0.000000000000
 N    4.040296889199   -1.096495841193    0.000000000000
 H    5.049436889199   -1.019215841193    0.000000000000
 C    3.411996889199   -2.413035841193    0.000000000000
 H    2.786046889199   -2.535585841193    0.894790000000
 H    2.786046889199   -2.535585841193   -0.894790000000
 H    4.196796889199   -3.176925841193    0.000000000000
 K   -0.358233110801    0.007434158807    0.000000000000
 O   -1.857910029611    0.038565159274    0.000000000000
 C   -3.107600876205   -0.031079975803    0.000000000000
 C   -3.845058097423   -1.347387106746    0.000000000000
 H   -3.112507107963   -2.160913206783    0.000000000000
 H   -4.484115880137   -1.431393343631   -0.890917638964
 H   -4.484115880137   -1.431393343631    0.890917638964
 N   -3.849226793012    1.092532326409    0.000000000000
 H   -4.858371846084    1.015249263195    0.000000000000
 C   -3.220926113195    2.409072240024    0.000000000000
 H   -2.594972006177    2.531625067004   -0.894793585195
 H   -2.594972006177    2.531625067004    0.894793585195
 H   -4.005723389883    3.172966454299    0.000000000000
