25

 C    4.075591595216    1.342604931835    0.000000000000
 H    3.343031595216    2.156134931835    0.000000000000
 H    4.714651595216    1.426614931835    0.890920000000
 H    4.714651595216    1.426614931835   -0.890920000000
 C    3.338131595216    0.026294931835    0.000000000000
 O    2.088441595216   -0.043355068165    0.000000000000
 N    4.079761595216   -1.097315068165    0.000000000000
 H    5.088901595216   -1.020035068165    0.000000000000
 C    3.451461595216   -2.413855068165    0.000000000000
 H    2.825511595216   -2.536405068165    0.894790000000
 H    2.825511595216   -2.536405068165   -0.894790000000
 H    4.236261595216   -3.177745068165    0.000000000000
 K   -0.318768404784    0.006614931835    0.000000000000
 O   -1.918423784847    0.039821332333    0.000000000000
 C   -3.168114631441   -0.029823802744    0.000000000000
 C   -3.905571852659   -1.346130933687    0.000000000000
 H   -3.173020863199   -2.159657033724    0.000000000000
 H   -4.544629635373   -1.430137170572   -0.890917638964
 H   -4.544629635373   -1.430137170572    0.890917638964
 N   -3.909740548248    1.093788499468    0.000000000000
 H   -4.918885601321    1.016505436254    0.000000000000
 C   -3.281439868431    2.410328413083    0.000000000000
 H   -2.655485761414    2.532881240063   -0.894793585195
 H   -2.655485761414    2.532881240063    0.894793585195
 H   -4.066237145119    3.174222627358    0.000000000000
