25

 C    4.115056301234    1.341785704863    0.000000000000
 H    3.382496301234    2.155315704863    0.000000000000
 H    4.754116301234    1.425795704863    0.890920000000
 H    4.754116301234    1.425795704863   -0.890920000000
 C    3.377596301234    0.025475704863    0.000000000000
 O    2.127906301234   -0.044174295137    0.000000000000
 N    4.119226301234   -1.098134295137    0.000000000000
 H    5.128366301234   -1.020854295137    0.000000000000
 C    3.490926301234   -2.414674295137    0.000000000000
 H    2.864976301234   -2.537224295137    0.894790000000
 H    2.864976301234   -2.537224295137   -0.894790000000
 H    4.275726301234   -3.178564295137    0.000000000000
 K   -0.279303698766    0.005795704863    0.000000000000
 O   -1.978937540084    0.041077505391    0.000000000000
 C   -3.228628386678   -0.028567629685    0.000000000000
 C   -3.966085607896   -1.344874760628    0.000000000000
 H   -3.233534618435   -2.158400860665    0.000000000000
 H   -4.605143390609   -1.428880997513   -0.890917638964
 H   -4.605143390609   -1.428880997513    0.890917638964
 N   -3.970254303485    1.095044672527    0.000000000000
 H   -4.979399356557    1.017761609313    0.000000000000
 C   -3.341953623667    2.411584586141    0.000000000000
 H   -2.715999516650    2.534137413122   -0.894793585195
 H   -2.715999516650    2.534137413122    0.894793585195
 H   -4.126750900355    3.175478800417    0.000000000000
