25

 C    4.193985713269    1.340147250918    0.000000000000
 H    3.461425713269    2.153677250918    0.000000000000
 H    4.833045713269    1.424157250918    0.890920000000
 H    4.833045713269    1.424157250918   -0.890920000000
 C    3.456525713269    0.023837250918    0.000000000000
 O    2.206835713269   -0.045812749082    0.000000000000
 N    4.198155713269   -1.099772749082    0.000000000000
 H    5.207295713269   -1.022492749082    0.000000000000
 C    3.569855713269   -2.416312749082    0.000000000000
 H    2.943905713269   -2.538862749082    0.894790000000
 H    2.943905713269   -2.538862749082   -0.894790000000
 H    4.354655713269   -3.180202749082    0.000000000000
 K   -0.200374286731    0.004157250918    0.000000000000
 O   -2.099965050557    0.043589851509    0.000000000000
 C   -3.349655897150   -0.026055283567    0.000000000000
 C   -4.087113118369   -1.342362414510    0.000000000000
 H   -3.354562128908   -2.155888514547    0.000000000000
 H   -4.726170901082   -1.426368651396   -0.890917638964
 H   -4.726170901082   -1.426368651396    0.890917638964
 N   -4.091281813957    1.097557018644    0.000000000000
 H   -5.100426867030    1.020273955430    0.000000000000
 C   -3.462981134140    2.414096932259    0.000000000000
 H   -2.837027027123    2.536649759240   -0.894793585195
 H   -2.837027027123    2.536649759240    0.894793585195
 H   -4.247778410828    3.177991146535    0.000000000000
