25

 C    7.390626900692    1.273789866172    0.000000000000
 H    6.658066900692    2.087319866172    0.000000000000
 H    8.029686900692    1.357799866172    0.890920000000
 H    8.029686900692    1.357799866172   -0.890920000000
 C    6.653166900692   -0.042520133828    0.000000000000
 O    5.403476900692   -0.112170133828    0.000000000000
 N    7.394796900692   -1.166130133828    0.000000000000
 H    8.403936900692   -1.088850133828    0.000000000000
 C    6.766496900692   -2.482670133828    0.000000000000
 H    6.140546900692   -2.605220133828    0.894790000000
 H    6.140546900692   -2.605220133828   -0.894790000000
 H    7.551296900692   -3.246560133828    0.000000000000
 K    2.996266900692   -0.062200133828    0.000000000000
 O   -7.001579224704    0.145339869282    0.000000000000
 C   -8.251270071298    0.075694734206    0.000000000000
 C   -8.988727292516   -1.240612396738    0.000000000000
 H   -8.256176303056   -2.054138496774    0.000000000000
 H   -9.627785075230   -1.324618633623   -0.890917638964
 H   -9.627785075230   -1.324618633623    0.890917638964
 N   -8.992895988105    1.199307036417    0.000000000000
 H  -10.002041041177    1.122023973203    0.000000000000
 C   -8.364595308288    2.515846950032    0.000000000000
 H   -7.738641201270    2.638399777013   -0.894793585195
 H   -7.738641201270    2.638399777013    0.894793585195
 H   -9.149392584976    3.279741164307    0.000000000000
