25

 C    4.430773949374    1.335231889085    0.000000000000
 H    3.698213949374    2.148761889085    0.000000000000
 H    5.069833949374    1.419241889085    0.890920000000
 H    5.069833949374    1.419241889085   -0.890920000000
 C    3.693313949374    0.018921889085    0.000000000000
 O    2.443623949374   -0.050728110915    0.000000000000
 N    4.434943949374   -1.104688110915    0.000000000000
 H    5.444083949374   -1.027408110915    0.000000000000
 C    3.806643949374   -2.421228110915    0.000000000000
 H    3.180693949374   -2.543778110915    0.894790000000
 H    3.180693949374   -2.543778110915   -0.894790000000
 H    4.591443949374   -3.185118110915    0.000000000000
 K    0.036413949374   -0.000758110915    0.000000000000
 O   -2.463047581975    0.051126889863    0.000000000000
 C   -3.712738428569   -0.018518245213    0.000000000000
 C   -4.450195649787   -1.334825376157    0.000000000000
 H   -3.717644660327   -2.148351476193    0.000000000000
 H   -5.089253432501   -1.418831613042   -0.890917638964
 H   -5.089253432501   -1.418831613042    0.890917638964
 N   -4.454364345376    1.105094056998    0.000000000000
 H   -5.463509398448    1.027810993784    0.000000000000
 C   -3.826063665559    2.421633970613    0.000000000000
 H   -3.200109558541    2.544186797594   -0.894793585195
 H   -3.200109558541    2.544186797594    0.894793585195
 H   -4.610860942246    3.185528184888    0.000000000000
