25

 C    4.588632773445    1.331954981197    0.000000000000
 H    3.856072773445    2.145484981197    0.000000000000
 H    5.227692773445    1.415964981197    0.890920000000
 H    5.227692773445    1.415964981197   -0.890920000000
 C    3.851172773445    0.015644981197    0.000000000000
 O    2.601482773445   -0.054005018803    0.000000000000
 N    4.592802773445   -1.107965018803    0.000000000000
 H    5.601942773445   -1.030685018803    0.000000000000
 C    3.964502773445   -2.424505018803    0.000000000000
 H    3.338552773445   -2.547055018803    0.894790000000
 H    3.338552773445   -2.547055018803   -0.894790000000
 H    4.749302773445   -3.188395018803    0.000000000000
 K    0.194272773445   -0.004035018803    0.000000000000
 O   -2.705102602920    0.056151582098    0.000000000000
 C   -3.954793449514   -0.013493552978    0.000000000000
 C   -4.692250670733   -1.329800683921    0.000000000000
 H   -3.959699681272   -2.143326783958    0.000000000000
 H   -5.331308453446   -1.413806920806   -0.890917638964
 H   -5.331308453446   -1.413806920806    0.890917638964
 N   -4.696419366321    1.110118749234    0.000000000000
 H   -5.705564419394    1.032835686020    0.000000000000
 C   -4.068118686504    2.426658662848    0.000000000000
 H   -3.442164579487    2.549211489829   -0.894793585195
 H   -3.442164579487    2.549211489829    0.894793585195
 H   -4.852915963192    3.190552877124    0.000000000000
