25

 C    4.628097479462    1.331135754224    0.000000000000
 H    3.895537479462    2.144665754224    0.000000000000
 H    5.267157479462    1.415145754224    0.890920000000
 H    5.267157479462    1.415145754224   -0.890920000000
 C    3.890637479462    0.014825754224    0.000000000000
 O    2.640947479462   -0.054824245776    0.000000000000
 N    4.632267479462   -1.108784245776    0.000000000000
 H    5.641407479462   -1.031504245776    0.000000000000
 C    4.003967479462   -2.425324245776    0.000000000000
 H    3.378017479462   -2.547874245776    0.894790000000
 H    3.378017479462   -2.547874245776   -0.894790000000
 H    4.788767479462   -3.189214245776    0.000000000000
 K    0.233737479462   -0.004854245776    0.000000000000
 O   -2.765616358157    0.057407755157    0.000000000000
 C   -4.015307204751   -0.012237379919    0.000000000000
 C   -4.752764425969   -1.328544510862    0.000000000000
 H   -4.020213436508   -2.142070610899    0.000000000000
 H   -5.391822208683   -1.412550747747   -0.890917638964
 H   -5.391822208683   -1.412550747747    0.890917638964
 N   -4.756933121558    1.111374922292    0.000000000000
 H   -5.766078174630    1.034091859079    0.000000000000
 C   -4.128632441740    2.427914835907    0.000000000000
 H   -3.502678334723    2.550467662888   -0.894793585195
 H   -3.502678334723    2.550467662888    0.894793585195
 H   -4.913429718428    3.191809050183    0.000000000000
