25

 C    4.667562185480    1.330316527252    0.000000000000
 H    3.935002185480    2.143846527252    0.000000000000
 H    5.306622185480    1.414326527252    0.890920000000
 H    5.306622185480    1.414326527252   -0.890920000000
 C    3.930102185480    0.014006527252    0.000000000000
 O    2.680412185480   -0.055643472748    0.000000000000
 N    4.671732185480   -1.109603472748    0.000000000000
 H    5.680872185480   -1.032323472748    0.000000000000
 C    4.043432185480   -2.426143472748    0.000000000000
 H    3.417482185480   -2.548693472748    0.894790000000
 H    3.417482185480   -2.548693472748   -0.894790000000
 H    4.828232185480   -3.190033472748    0.000000000000
 K    0.273202185480   -0.005673472748    0.000000000000
 O   -2.826130113393    0.058663928216    0.000000000000
 C   -4.075820959987   -0.010981206860    0.000000000000
 C   -4.813278181205   -1.327288337803    0.000000000000
 H   -4.080727191745   -2.140814437840    0.000000000000
 H   -5.452335963919   -1.411294574688   -0.890917638964
 H   -5.452335963919   -1.411294574688    0.890917638964
 N   -4.817446876794    1.112631095351    0.000000000000
 H   -5.826591929866    1.035348032138    0.000000000000
 C   -4.189146196977    2.429171008966    0.000000000000
 H   -3.563192089959    2.551723835947   -0.894793585195
 H   -3.563192089959    2.551723835947    0.894793585195
 H   -4.973943473665    3.193065223242    0.000000000000
