25

 C    4.707026891497    1.329497300280    0.000000000000
 H    3.974466891497    2.143027300280    0.000000000000
 H    5.346086891497    1.413507300280    0.890920000000
 H    5.346086891497    1.413507300280   -0.890920000000
 C    3.969566891497    0.013187300280    0.000000000000
 O    2.719876891497   -0.056462699720    0.000000000000
 N    4.711196891497   -1.110422699720    0.000000000000
 H    5.720336891497   -1.033142699720    0.000000000000
 C    4.082896891497   -2.426962699720    0.000000000000
 H    3.456946891497   -2.549512699720    0.894790000000
 H    3.456946891497   -2.549512699720   -0.894790000000
 H    4.867696891497   -3.190852699720    0.000000000000
 K    0.312666891497   -0.006492699720    0.000000000000
 O   -2.886643868630    0.059920101275    0.000000000000
 C   -4.136334715223   -0.009725033801    0.000000000000
 C   -4.873791936442   -1.326032164745    0.000000000000
 H   -4.141240946981   -2.139558264781    0.000000000000
 H   -5.512849719155   -1.410038401630   -0.890917638964
 H   -5.512849719155   -1.410038401630    0.890917638964
 N   -4.877960632030    1.113887268410    0.000000000000
 H   -5.887105685103    1.036604205196    0.000000000000
 C   -4.249659952213    2.430427182025    0.000000000000
 H   -3.623705845196    2.552980009006   -0.894793585195
 H   -3.623705845196    2.552980009006    0.894793585195
 H   -5.034457228901    3.194321396301    0.000000000000
