25

 C    4.746491597515    1.328678073308    0.000000000000
 H    4.013931597515    2.142208073308    0.000000000000
 H    5.385551597515    1.412688073308    0.890920000000
 H    5.385551597515    1.412688073308   -0.890920000000
 C    4.009031597515    0.012368073308    0.000000000000
 O    2.759341597515   -0.057281926692    0.000000000000
 N    4.750661597515   -1.111241926692    0.000000000000
 H    5.759801597515   -1.033961926692    0.000000000000
 C    4.122361597515   -2.427781926692    0.000000000000
 H    3.496411597515   -2.550331926692    0.894790000000
 H    3.496411597515   -2.550331926692   -0.894790000000
 H    4.907161597515   -3.191671926692    0.000000000000
 K    0.352131597515   -0.007311926692    0.000000000000
 O   -2.947157623866    0.061176274334    0.000000000000
 C   -4.196848470460   -0.008468860742    0.000000000000
 C   -4.934305691678   -1.324775991686    0.000000000000
 H   -4.201754702218   -2.138302091722    0.000000000000
 H   -5.573363474392   -1.408782228571   -0.890917638964
 H   -5.573363474392   -1.408782228571    0.890917638964
 N   -4.938474387267    1.115143441469    0.000000000000
 H   -5.947619440339    1.037860378255    0.000000000000
 C   -4.310173707450    2.431683355084    0.000000000000
 H   -3.684219600432    2.554236182065   -0.894793585195
 H   -3.684219600432    2.554236182065    0.894793585195
 H   -5.094970984138    3.195577569359    0.000000000000
