25

 C    4.785956303532    1.327858846336    0.000000000000
 H    4.053396303532    2.141388846336    0.000000000000
 H    5.425016303532    1.411868846336    0.890920000000
 H    5.425016303532    1.411868846336   -0.890920000000
 C    4.048496303532    0.011548846336    0.000000000000
 O    2.798806303532   -0.058101153664    0.000000000000
 N    4.790126303532   -1.112061153664    0.000000000000
 H    5.799266303532   -1.034781153664    0.000000000000
 C    4.161826303532   -2.428601153664    0.000000000000
 H    3.535876303532   -2.551151153664    0.894790000000
 H    3.535876303532   -2.551151153664   -0.894790000000
 H    4.946626303532   -3.192491153664    0.000000000000
 K    0.391596303532   -0.008131153664    0.000000000000
 O   -3.007671379102    0.062432447393    0.000000000000
 C   -4.257362225696   -0.007212687683    0.000000000000
 C   -4.994819446914   -1.323519818627    0.000000000000
 H   -4.262268457454   -2.137045918663    0.000000000000
 H   -5.633877229628   -1.407526055512   -0.890917638964
 H   -5.633877229628   -1.407526055512    0.890917638964
 N   -4.998988142503    1.116399614528    0.000000000000
 H   -6.008133195576    1.039116551314    0.000000000000
 C   -4.370687462686    2.432939528143    0.000000000000
 H   -3.744733355669    2.555492355124   -0.894793585195
 H   -3.744733355669    2.555492355124    0.894793585195
 H   -5.155484739374    3.196833742418    0.000000000000
