25

 C    4.904350421585    1.325401165419    0.000000000000
 H    4.171790421585    2.138931165419    0.000000000000
 H    5.543410421585    1.409411165419    0.890920000000
 H    5.543410421585    1.409411165419   -0.890920000000
 C    4.166890421585    0.009091165419    0.000000000000
 O    2.917200421585   -0.060558834581    0.000000000000
 N    4.908520421585   -1.114518834581    0.000000000000
 H    5.917660421585   -1.037238834581    0.000000000000
 C    4.280220421585   -2.431058834581    0.000000000000
 H    3.654270421585   -2.553608834581    0.894790000000
 H    3.654270421585   -2.553608834581   -0.894790000000
 H    5.065020421585   -3.194948834581    0.000000000000
 K    0.509990421585   -0.010588834581    0.000000000000
 O   -3.189212644812    0.066200966570    0.000000000000
 C   -4.438903491405   -0.003444168506    0.000000000000
 C   -5.176360712624   -1.319751299450    0.000000000000
 H   -4.443809723163   -2.133277399486    0.000000000000
 H   -5.815418495337   -1.403757536335   -0.890917638964
 H   -5.815418495337   -1.403757536335    0.890917638964
 N   -5.180529408212    1.120168133705    0.000000000000
 H   -6.189674461285    1.042885070491    0.000000000000
 C   -4.552228728395    2.436708047320    0.000000000000
 H   -3.926274621378    2.559260874301   -0.894793585195
 H   -3.926274621378    2.559260874301    0.894793585195
 H   -5.337026005083    3.200602261595    0.000000000000
