25

 C    4.943815127603    1.324581938447    0.000000000000
 H    4.211255127603    2.138111938447    0.000000000000
 H    5.582875127603    1.408591938447    0.890920000000
 H    5.582875127603    1.408591938447   -0.890920000000
 C    4.206355127603    0.008271938447    0.000000000000
 O    2.956665127603   -0.061378061553    0.000000000000
 N    4.947985127603   -1.115338061553    0.000000000000
 H    5.957125127603   -1.038058061553    0.000000000000
 C    4.319685127603   -2.431878061553    0.000000000000
 H    3.693735127603   -2.554428061553    0.894790000000
 H    3.693735127603   -2.554428061553   -0.894790000000
 H    5.104485127603   -3.195768061553    0.000000000000
 K    0.549455127603   -0.011408061553    0.000000000000
 O   -3.249726400048    0.067457139629    0.000000000000
 C   -4.499417246642   -0.002187995447    0.000000000000
 C   -5.236874467860   -1.318495126391    0.000000000000
 H   -4.504323478400   -2.132021226427    0.000000000000
 H   -5.875932250574   -1.402501363276   -0.890917638964
 H   -5.875932250574   -1.402501363276    0.890917638964
 N   -5.241043163449    1.121424306764    0.000000000000
 H   -6.250188216521    1.044141243550    0.000000000000
 C   -4.612742483632    2.437964220379    0.000000000000
 H   -3.986788376614    2.560517047360   -0.894793585195
 H   -3.986788376614    2.560517047360    0.894793585195
 H   -5.397539760320    3.201858434654    0.000000000000
