25

 C    5.062209245655    1.322124257530    0.000000000000
 H    4.329649245655    2.135654257530    0.000000000000
 H    5.701269245655    1.406134257530    0.890920000000
 H    5.701269245655    1.406134257530   -0.890920000000
 C    4.324749245655    0.005814257530    0.000000000000
 O    3.075059245655   -0.063835742470    0.000000000000
 N    5.066379245655   -1.117795742470    0.000000000000
 H    6.075519245655   -1.040515742470    0.000000000000
 C    4.438079245655   -2.434335742470    0.000000000000
 H    3.812129245655   -2.556885742470    0.894790000000
 H    3.812129245655   -2.556885742470   -0.894790000000
 H    5.222879245655   -3.198225742470    0.000000000000
 K    0.667849245655   -0.013865742470    0.000000000000
 O   -3.431267665757    0.071225658806    0.000000000000
 C   -4.680958512351    0.001580523729    0.000000000000
 C   -5.418415733569   -1.314726607214    0.000000000000
 H   -4.685864744109   -2.128252707251    0.000000000000
 H   -6.057473516283   -1.398732844099   -0.890917638964
 H   -6.057473516283   -1.398732844099    0.890917638964
 N   -5.422584429158    1.125192825941    0.000000000000
 H   -6.431729482230    1.047909762727    0.000000000000
 C   -4.794283749341    2.441732739556    0.000000000000
 H   -4.168329642323    2.564285566536   -0.894793585195
 H   -4.168329642323    2.564285566536    0.894793585195
 H   -5.579081026029    3.205626953831    0.000000000000
