25

 C    5.338462187779    1.316389668725    0.000000000000
 H    4.605902187779    2.129919668725    0.000000000000
 H    5.977522187779    1.400399668725    0.890920000000
 H    5.977522187779    1.400399668725   -0.890920000000
 C    4.601002187779    0.000079668725    0.000000000000
 O    3.351312187779   -0.069570331275    0.000000000000
 N    5.342632187779   -1.123530331275    0.000000000000
 H    6.351772187779   -1.046250331275    0.000000000000
 C    4.714332187779   -2.440070331275    0.000000000000
 H    4.088382187779   -2.562620331275    0.894790000000
 H    4.088382187779   -2.562620331275   -0.894790000000
 H    5.499132187779   -3.203960331275    0.000000000000
 K    0.944102187779   -0.019600331275    0.000000000000
 O   -3.854863952412    0.080018870218    0.000000000000
 C   -5.104554799006    0.010373735142    0.000000000000
 C   -5.842012020224   -1.305933395802    0.000000000000
 H   -5.109461030763   -2.119459495838    0.000000000000
 H   -6.481069802938   -1.389939632687   -0.890917638964
 H   -6.481069802938   -1.389939632687    0.890917638964
 N   -5.846180715813    1.133986037353    0.000000000000
 H   -6.855325768885    1.056702974139    0.000000000000
 C   -5.217880035996    2.450525950968    0.000000000000
 H   -4.591925928978    2.573078777949   -0.894793585195
 H   -4.591925928978    2.573078777949    0.894793585195
 H   -6.002677312683    3.214420165243    0.000000000000
