25

 C    5.417391599814    1.314751214781    0.000000000000
 H    4.684831599814    2.128281214781    0.000000000000
 H    6.056451599814    1.398761214781    0.890920000000
 H    6.056451599814    1.398761214781   -0.890920000000
 C    4.679931599814   -0.001558785219    0.000000000000
 O    3.430241599814   -0.071208785219    0.000000000000
 N    5.421561599814   -1.125168785219    0.000000000000
 H    6.430701599814   -1.047888785219    0.000000000000
 C    4.793261599814   -2.441708785219    0.000000000000
 H    4.167311599814   -2.564258785219    0.894790000000
 H    4.167311599814   -2.564258785219   -0.894790000000
 H    5.578061599814   -3.205598785219    0.000000000000
 K    1.023031599814   -0.021238785219    0.000000000000
 O   -3.975891462885    0.082531216336    0.000000000000
 C   -5.225582309478    0.012886081260    0.000000000000
 C   -5.963039530697   -1.303421049684    0.000000000000
 H   -5.230488541236   -2.116947149720    0.000000000000
 H   -6.602097313410   -1.387427286569   -0.890917638964
 H   -6.602097313410   -1.387427286569    0.890917638964
 N   -5.967208226286    1.136498383471    0.000000000000
 H   -6.976353279358    1.059215320257    0.000000000000
 C   -5.338907546468    2.453038297086    0.000000000000
 H   -4.712953439451    2.575591124067   -0.894793585195
 H   -4.712953439451    2.575591124067    0.894793585195
 H   -6.123704823156    3.216932511361    0.000000000000
