25

 C    5.614715129902    1.310655079920    0.000000000000
 H    4.882155129902    2.124185079920    0.000000000000
 H    6.253775129902    1.394665079920    0.890920000000
 H    6.253775129902    1.394665079920   -0.890920000000
 C    4.877255129902   -0.005654920080    0.000000000000
 O    3.627565129902   -0.075304920080    0.000000000000
 N    5.618885129902   -1.129264920080    0.000000000000
 H    6.628025129902   -1.051984920080    0.000000000000
 C    4.990585129902   -2.445804920080    0.000000000000
 H    4.364635129902   -2.568354920080    0.894790000000
 H    4.364635129902   -2.568354920080   -0.894790000000
 H    5.775385129902   -3.209694920080    0.000000000000
 K    1.220355129902   -0.025334920080    0.000000000000
 O   -4.278460239067    0.088812081630    0.000000000000
 C   -5.528151085660    0.019166946554    0.000000000000
 C   -6.265608306879   -1.297140184389    0.000000000000
 H   -5.533057317418   -2.110666284426    0.000000000000
 H   -6.904666089592   -1.381146421274   -0.890917638964
 H   -6.904666089592   -1.381146421274    0.890917638964
 N   -6.269777002467    1.142779248765    0.000000000000
 H   -7.278922055540    1.065496185552    0.000000000000
 C   -5.641476322650    2.459319162380    0.000000000000
 H   -5.015522215633    2.581871989361   -0.894793585195
 H   -5.015522215633    2.581871989361    0.894793585195
 H   -6.426273599338    3.223213376656    0.000000000000
