25

 C    5.733109247954    1.308197399003    0.000000000000
 H    5.000549247954    2.121727399003    0.000000000000
 H    6.372169247954    1.392207399003    0.890920000000
 H    6.372169247954    1.392207399003   -0.890920000000
 C    4.995649247954   -0.008112600997    0.000000000000
 O    3.745959247954   -0.077762600997    0.000000000000
 N    5.737279247954   -1.131722600997    0.000000000000
 H    6.746419247954   -1.054442600997    0.000000000000
 C    5.108979247954   -2.448262600997    0.000000000000
 H    4.483029247954   -2.570812600997    0.894790000000
 H    4.483029247954   -2.570812600997   -0.894790000000
 H    5.893779247954   -3.212152600997    0.000000000000
 K    1.338749247954   -0.027792600997    0.000000000000
 O   -4.460001504776    0.092580600807    0.000000000000
 C   -5.709692351370    0.022935465731    0.000000000000
 C   -6.447149572588   -1.293371665213    0.000000000000
 H   -5.714598583127   -2.106897765249    0.000000000000
 H   -7.086207355302   -1.377377902098   -0.890917638964
 H   -7.086207355302   -1.377377902098    0.890917638964
 N   -6.451318268177    1.146547767942    0.000000000000
 H   -7.460463321249    1.069264704728    0.000000000000
 C   -5.823017588359    2.463087681557    0.000000000000
 H   -5.197063481342    2.585640508538   -0.894793585195
 H   -5.197063481342    2.585640508538    0.894793585195
 H   -6.607814865047    3.226981895832    0.000000000000
