25

 C    6.206685720165    1.298366675337    0.000000000000
 H    5.474125720165    2.111896675337    0.000000000000
 H    6.845745720165    1.382376675337    0.890920000000
 H    6.845745720165    1.382376675337   -0.890920000000
 C    5.469225720165   -0.017943324663    0.000000000000
 O    4.219535720165   -0.087593324663    0.000000000000
 N    6.210855720165   -1.141553324663    0.000000000000
 H    7.219995720165   -1.064273324663    0.000000000000
 C    5.582555720165   -2.458093324663    0.000000000000
 H    4.956605720165   -2.580643324663    0.894790000000
 H    4.956605720165   -2.580643324663   -0.894790000000
 H    6.367355720165   -3.221983324663    0.000000000000
 K    1.812325720165   -0.037623324663    0.000000000000
 O   -5.186166567612    0.107654677514    0.000000000000
 C   -6.435857414206    0.038009542438    0.000000000000
 C   -7.173314635425   -1.278297588506    0.000000000000
 H   -6.440763645964   -2.091823688542    0.000000000000
 H   -7.812372418138   -1.362303825391   -0.890917638964
 H   -7.812372418138   -1.362303825391    0.890917638964
 N   -7.177483331013    1.161621844649    0.000000000000
 H   -8.186628384086    1.084338781435    0.000000000000
 C   -6.549182651196    2.478161758264    0.000000000000
 H   -5.923228544179    2.600714585245   -0.894793585195
 H   -5.923228544179    2.600714585245    0.894793585195
 H   -7.333979927884    3.242055972540    0.000000000000
