25

 C    6.285615132200    1.296728221393    0.000000000000
 H    5.553055132200    2.110258221393    0.000000000000
 H    6.924675132200    1.380738221393    0.890920000000
 H    6.924675132200    1.380738221393   -0.890920000000
 C    5.548155132200   -0.019581778607    0.000000000000
 O    4.298465132200   -0.089231778607    0.000000000000
 N    6.289785132200   -1.143191778607    0.000000000000
 H    7.298925132200   -1.065911778607    0.000000000000
 C    5.661485132200   -2.459731778607    0.000000000000
 H    5.035535132200   -2.582281778607    0.894790000000
 H    5.035535132200   -2.582281778607   -0.894790000000
 H    6.446285132200   -3.223621778607    0.000000000000
 K    1.891255132200   -0.039261778607    0.000000000000
 O   -5.307194078085    0.110167023632    0.000000000000
 C   -6.556884924679    0.040521888556    0.000000000000
 C   -7.294342145897   -1.275785242388    0.000000000000
 H   -6.561791156437   -2.089311342424    0.000000000000
 H   -7.933399928611   -1.359791479273   -0.890917638964
 H   -7.933399928611   -1.359791479273    0.890917638964
 N   -7.298510841486    1.164134190767    0.000000000000
 H   -8.307655894558    1.086851127553    0.000000000000
 C   -6.670210161669    2.480674104382    0.000000000000
 H   -6.044256054651    2.603226931363   -0.894793585195
 H   -6.044256054651    2.603226931363    0.894793585195
 H   -7.455007438357    3.244568318657    0.000000000000
