25

 C    6.404009250253    1.294270540476    0.000000000000
 H    5.671449250253    2.107800540476    0.000000000000
 H    7.043069250253    1.378280540476    0.890920000000
 H    7.043069250253    1.378280540476   -0.890920000000
 C    5.666549250253   -0.022039459524    0.000000000000
 O    4.416859250253   -0.091689459524    0.000000000000
 N    6.408179250253   -1.145649459524    0.000000000000
 H    7.417319250253   -1.068369459524    0.000000000000
 C    5.779879250253   -2.462189459524    0.000000000000
 H    5.153929250253   -2.584739459524    0.894790000000
 H    5.153929250253   -2.584739459524   -0.894790000000
 H    6.564679250253   -3.226079459524    0.000000000000
 K    2.009649250253   -0.041719459524    0.000000000000
 O   -5.488735343794    0.113935542809    0.000000000000
 C   -6.738426190388    0.044290407733    0.000000000000
 C   -7.475883411607   -1.272016723211    0.000000000000
 H   -6.743332422146   -2.085542823247    0.000000000000
 H   -8.114941194320   -1.356022960096   -0.890917638964
 H   -8.114941194320   -1.356022960096    0.890917638964
 N   -7.480052107195    1.167902709944    0.000000000000
 H   -8.489197160268    1.090619646730    0.000000000000
 C   -6.851751427378    2.484442623559    0.000000000000
 H   -6.225797320361    2.606995450540   -0.894793585195
 H   -6.225797320361    2.606995450540    0.894793585195
 H   -7.636548704066    3.248336837834    0.000000000000
