25

 C    6.443473956271    1.293451313504    0.000000000000
 H    5.710913956271    2.106981313504    0.000000000000
 H    7.082533956271    1.377461313504    0.890920000000
 H    7.082533956271    1.377461313504   -0.890920000000
 C    5.706013956271   -0.022858686496    0.000000000000
 O    4.456323956271   -0.092508686496    0.000000000000
 N    6.447643956271   -1.146468686496    0.000000000000
 H    7.456783956271   -1.069188686496    0.000000000000
 C    5.819343956271   -2.463008686496    0.000000000000
 H    5.193393956271   -2.585558686496    0.894790000000
 H    5.193393956271   -2.585558686496   -0.894790000000
 H    6.604143956271   -3.226898686496    0.000000000000
 K    2.049113956271   -0.042538686496    0.000000000000
 O   -5.549249099031    0.115191715868    0.000000000000
 C   -6.798939945625    0.045546580792    0.000000000000
 C   -7.536397166843   -1.270760550152    0.000000000000
 H   -6.803846177382   -2.084286650188    0.000000000000
 H   -8.175454949557   -1.354766787037   -0.890917638964
 H   -8.175454949557   -1.354766787037    0.890917638964
 N   -7.540565862432    1.169158883003    0.000000000000
 H   -8.549710915504    1.091875819789    0.000000000000
 C   -6.912265182614    2.485698796618    0.000000000000
 H   -6.286311075597    2.608251623599   -0.894793585195
 H   -6.286311075597    2.608251623599    0.894793585195
 H   -7.697062459302    3.249593010893    0.000000000000
