25

 C    6.522403368306    1.291812859560    0.000000000000
 H    5.789843368306    2.105342859560    0.000000000000
 H    7.161463368306    1.375822859560    0.890920000000
 H    7.161463368306    1.375822859560   -0.890920000000
 C    5.784943368306   -0.024497140440    0.000000000000
 O    4.535253368306   -0.094147140440    0.000000000000
 N    6.526573368306   -1.148107140440    0.000000000000
 H    7.535713368306   -1.070827140440    0.000000000000
 C    5.898273368306   -2.464647140440    0.000000000000
 H    5.272323368306   -2.587197140440    0.894790000000
 H    5.272323368306   -2.587197140440   -0.894790000000
 H    6.683073368306   -3.228537140440    0.000000000000
 K    2.128043368306   -0.044177140440    0.000000000000
 O   -5.670276609504    0.117704061986    0.000000000000
 C   -6.919967456097    0.048058926909    0.000000000000
 C   -7.657424677316   -1.268248204034    0.000000000000
 H   -6.924873687855   -2.081774304071    0.000000000000
 H   -8.296482460029   -1.352254440919   -0.890917638964
 H   -8.296482460029   -1.352254440919    0.890917638964
 N   -7.661593372904    1.171671229121    0.000000000000
 H   -8.670738425977    1.094388165907    0.000000000000
 C   -7.033292693087    2.488211142736    0.000000000000
 H   -6.407338586070    2.610763969716   -0.894793585195
 H   -6.407338586070    2.610763969716    0.894793585195
 H   -7.818089969775    3.252105357011    0.000000000000
