25

 C    6.561868074323    1.290993632588    0.000000000000
 H    5.829308074323    2.104523632588    0.000000000000
 H    7.200928074323    1.375003632588    0.890920000000
 H    7.200928074323    1.375003632588   -0.890920000000
 C    5.824408074323   -0.025316367412    0.000000000000
 O    4.574718074323   -0.094966367412    0.000000000000
 N    6.566038074323   -1.148926367412    0.000000000000
 H    7.575178074323   -1.071646367412    0.000000000000
 C    5.937738074323   -2.465466367412    0.000000000000
 H    5.311788074323   -2.588016367412    0.894790000000
 H    5.311788074323   -2.588016367412   -0.894790000000
 H    6.722538074323   -3.229356367412    0.000000000000
 K    2.167508074323   -0.044996367412    0.000000000000
 O   -5.730790364740    0.118960235044    0.000000000000
 C   -6.980481211334    0.049315099968    0.000000000000
 C   -7.717938432552   -1.266992030975    0.000000000000
 H   -6.985387443092   -2.080518131012    0.000000000000
 H   -8.356996215266   -1.350998267860   -0.890917638964
 H   -8.356996215266   -1.350998267860    0.890917638964
 N   -7.722107128141    1.172927402180    0.000000000000
 H   -8.731252181213    1.095644338966    0.000000000000
 C   -7.093806448324    2.489467315794    0.000000000000
 H   -6.467852341306    2.612020142775   -0.894793585195
 H   -6.467852341306    2.612020142775    0.894793585195
 H   -7.878603725012    3.253361530070    0.000000000000
