25

 C    6.601332780341    1.290174405616    0.000000000000
 H    5.868772780341    2.103704405616    0.000000000000
 H    7.240392780341    1.374184405616    0.890920000000
 H    7.240392780341    1.374184405616   -0.890920000000
 C    5.863872780341   -0.026135594384    0.000000000000
 O    4.614182780341   -0.095785594384    0.000000000000
 N    6.605502780341   -1.149745594384    0.000000000000
 H    7.614642780341   -1.072465594384    0.000000000000
 C    5.977202780341   -2.466285594384    0.000000000000
 H    5.351252780341   -2.588835594384    0.894790000000
 H    5.351252780341   -2.588835594384   -0.894790000000
 H    6.762002780341   -3.230175594384    0.000000000000
 K    2.206972780341   -0.045815594384    0.000000000000
 O   -5.791304119976    0.120216408103    0.000000000000
 C   -7.040994966570    0.050571273027    0.000000000000
 C   -7.778452187788   -1.265735857916    0.000000000000
 H   -7.045901198328   -2.079261957953    0.000000000000
 H   -8.417509970502   -1.349742094801   -0.890917638964
 H   -8.417509970502   -1.349742094801    0.890917638964
 N   -7.782620883377    1.174183575238    0.000000000000
 H   -8.791765936450    1.096900512025    0.000000000000
 C   -7.154320203560    2.490723488853    0.000000000000
 H   -6.528366096543    2.613276315834   -0.894793585195
 H   -6.528366096543    2.613276315834    0.894793585195
 H   -7.939117480248    3.254617703129    0.000000000000
