25

 C    6.759191604411    1.286897497727    0.000000000000
 H    6.026631604411    2.100427497727    0.000000000000
 H    7.398251604411    1.370907497727    0.890920000000
 H    7.398251604411    1.370907497727   -0.890920000000
 C    6.021731604411   -0.029412502273    0.000000000000
 O    4.772041604411   -0.099062502273    0.000000000000
 N    6.763361604411   -1.153022502273    0.000000000000
 H    7.772501604411   -1.075742502273    0.000000000000
 C    6.135061604411   -2.469562502273    0.000000000000
 H    5.509111604411   -2.592112502273    0.894790000000
 H    5.509111604411   -2.592112502273   -0.894790000000
 H    6.919861604411   -3.233452502273    0.000000000000
 K    2.364831604411   -0.049092502273    0.000000000000
 O   -6.033359140922    0.125241100339    0.000000000000
 C   -7.283049987516    0.055595965263    0.000000000000
 C   -8.020507208734   -1.260711165681    0.000000000000
 H   -7.287956219274   -2.074237265717    0.000000000000
 H   -8.659564991448   -1.344717402566   -0.890917638964
 H   -8.659564991448   -1.344717402566    0.890917638964
 N   -8.024675904323    1.179208267474    0.000000000000
 H   -9.033820957395    1.101925204260    0.000000000000
 C   -7.396375224506    2.495748181089    0.000000000000
 H   -6.770421117488    2.618301008070   -0.894793585195
 H   -6.770421117488    2.618301008070    0.894793585195
 H   -8.181172501193    3.259642395364    0.000000000000
