25

 C    6.798656310429    1.286078270755    0.000000000000
 H    6.066096310429    2.099608270755    0.000000000000
 H    7.437716310429    1.370088270755    0.890920000000
 H    7.437716310429    1.370088270755   -0.890920000000
 C    6.061196310429   -0.030231729245    0.000000000000
 O    4.811506310429   -0.099881729245    0.000000000000
 N    6.802826310429   -1.153841729245    0.000000000000
 H    7.811966310429   -1.076561729245    0.000000000000
 C    6.174526310429   -2.470381729245    0.000000000000
 H    5.548576310429   -2.592931729245    0.894790000000
 H    5.548576310429   -2.592931729245   -0.894790000000
 H    6.959326310429   -3.234271729245    0.000000000000
 K    2.404296310429   -0.049911729245    0.000000000000
 O   -6.093872896158    0.126497273398    0.000000000000
 C   -7.343563742752    0.056852138322    0.000000000000
 C   -8.081020963970   -1.259454992622    0.000000000000
 H   -7.348469974510   -2.072981092658    0.000000000000
 H   -8.720078746684   -1.343461229507   -0.890917638964
 H   -8.720078746684   -1.343461229507    0.890917638964
 N   -8.085189659559    1.180464440533    0.000000000000
 H   -9.094334712631    1.103181377319    0.000000000000
 C   -7.456888979742    2.497004354148    0.000000000000
 H   -6.830934872724    2.619557181129   -0.894793585195
 H   -6.830934872724    2.619557181129    0.894793585195
 H   -8.241686256430    3.260898568423    0.000000000000
