25

 C    7.035444546534    1.281162908922    0.000000000000
 H    6.302884546534    2.094692908922    0.000000000000
 H    7.674504546534    1.365172908922    0.890920000000
 H    7.674504546534    1.365172908922   -0.890920000000
 C    6.297984546534   -0.035147091078    0.000000000000
 O    5.048294546534   -0.104797091078    0.000000000000
 N    7.039614546534   -1.158757091078    0.000000000000
 H    8.048754546534   -1.081477091078    0.000000000000
 C    6.411314546534   -2.475297091078    0.000000000000
 H    5.785364546534   -2.597847091078    0.894790000000
 H    5.785364546534   -2.597847091078   -0.894790000000
 H    7.196114546534   -3.239187091078    0.000000000000
 K    2.641084546534   -0.054827091078    0.000000000000
 O   -6.456955427577    0.134034311752    0.000000000000
 C   -7.706646274170    0.064389176675    0.000000000000
 C   -8.444103495389   -1.251917954268    0.000000000000
 H   -7.711552505928   -2.065444054305    0.000000000000
 H   -9.083161278102   -1.335924191153   -0.890917638964
 H   -9.083161278102   -1.335924191153    0.890917638964
 N   -8.448272190978    1.188001478887    0.000000000000
 H   -9.457417244050    1.110718415673    0.000000000000
 C   -7.819971511160    2.504541392502    0.000000000000
 H   -7.194017404143    2.627094219482   -0.894793585195
 H   -7.194017404143    2.627094219482    0.894793585195
 H   -8.604768787848    3.268435606777    0.000000000000
