25

 C    7.193303370605    1.277886001033    0.000000000000
 H    6.460743370605    2.091416001033    0.000000000000
 H    7.832363370605    1.361896001033    0.890920000000
 H    7.832363370605    1.361896001033   -0.890920000000
 C    6.455843370605   -0.038423998967    0.000000000000
 O    5.206153370605   -0.108073998967    0.000000000000
 N    7.197473370605   -1.162033998967    0.000000000000
 H    8.206613370605   -1.084753998967    0.000000000000
 C    6.569173370605   -2.478573998967    0.000000000000
 H    5.943223370605   -2.601123998967    0.894790000000
 H    5.943223370605   -2.601123998967   -0.894790000000
 H    7.353973370605   -3.242463998967    0.000000000000
 K    2.798943370605   -0.058103998967    0.000000000000
 O   -6.699010448522    0.139059003987    0.000000000000
 C   -7.948701295116    0.069413868911    0.000000000000
 C   -8.686158516334   -1.246893262033    0.000000000000
 H   -7.953607526874   -2.060419362069    0.000000000000
 H   -9.325216299048   -1.330899498918   -0.890917638964
 H   -9.325216299048   -1.330899498918    0.890917638964
 N   -8.690327211923    1.193026171122    0.000000000000
 H   -9.699472264995    1.115743107908    0.000000000000
 C   -8.062026532106    2.509566084737    0.000000000000
 H   -7.436072425088    2.632118911718   -0.894793585195
 H   -7.436072425088    2.632118911718    0.894793585195
 H   -8.846823808794    3.273460299012    0.000000000000
