25

 C    7.351162194675    1.274609093144    0.000000000000
 H    6.618602194675    2.088139093144    0.000000000000
 H    7.990222194675    1.358619093144    0.890920000000
 H    7.990222194675    1.358619093144   -0.890920000000
 C    6.613702194675   -0.041700906856    0.000000000000
 O    5.364012194675   -0.111350906856    0.000000000000
 N    7.355332194675   -1.165310906856    0.000000000000
 H    8.364472194675   -1.088030906856    0.000000000000
 C    6.727032194675   -2.481850906856    0.000000000000
 H    6.101082194675   -2.604400906856    0.894790000000
 H    6.101082194675   -2.604400906856   -0.894790000000
 H    7.511832194675   -3.245740906856    0.000000000000
 K    2.956802194675   -0.061380906856    0.000000000000
 O   -6.941065469468    0.144083696223    0.000000000000
 C   -8.190756316062    0.074438561147    0.000000000000
 C   -8.928213537280   -1.241868569797    0.000000000000
 H   -8.195662547819   -2.055394669833    0.000000000000
 H   -9.567271319994   -1.325874806682   -0.890917638964
 H   -9.567271319994   -1.325874806682    0.890917638964
 N   -8.932382232869    1.198050863358    0.000000000000
 H   -9.941527285941    1.120767800144    0.000000000000
 C   -8.304081553051    2.514590776973    0.000000000000
 H   -7.678127446034    2.637143603954   -0.894793585195
 H   -7.678127446034    2.637143603954    0.894793585195
 H   -9.088878829739    3.278484991248    0.000000000000
