14

 N    0.913630967890    0.692431994978   -0.261260613586
 C   -0.171815975013    1.515190964806   -0.258118742365
 H    0.019704864869    2.590247937305   -0.260623340907
 C    0.831767247208   -0.726838466748   -0.260242944702
 O    1.875510494526   -1.380080356809   -0.262723786014
 N   -0.442070841473   -1.268978098341   -0.249629710572
 C   -1.499756954286   -0.467626067466   -0.252122755400
 N   -2.731750070742   -1.071425096546   -0.297528578609
 H   -2.740684539063   -2.071118983057   -0.127957970044
 H   -3.550327814945   -0.544996777146   -0.022628453812
 C   -1.431174955852    0.973750771729   -0.255606189066
 H   -2.319698671537    1.605068362973   -0.265088143093
 H    1.857571090817    1.067080207420   -0.264566509814
 K    0.915951589730    0.691674847379    0.738736407131
