14

 N    0.913510413453    0.692471328187   -0.313209654152
 C   -0.171936529450    1.515230298015   -0.310067782931
 H    0.019584310432    2.590287270514   -0.312572381473
 C    0.831646692771   -0.726799133539   -0.312191985268
 O    1.875389940089   -1.380041023600   -0.314672826580
 N   -0.442191395910   -1.268938765132   -0.301578751138
 C   -1.499877508723   -0.467586734257   -0.304071795966
 N   -2.731870625179   -1.071385763337   -0.349477619175
 H   -2.740805093500   -2.071079649848   -0.179907010610
 H   -3.550448369382   -0.544957443937   -0.074577494378
 C   -1.431295510289    0.973790104938   -0.307555229632
 H   -2.319819225974    1.605107696182   -0.317037183659
 H    1.857450536380    1.067119540629   -0.316515550380
 K    0.916295159661    0.691562751068    0.886786770707
