14

 N    0.913389859016    0.692510661395   -0.365158694719
 C   -0.172057083887    1.515269631223   -0.362016823498
 H    0.019463755995    2.590326603722   -0.364521422040
 C    0.831526138334   -0.726759800331   -0.364141025835
 O    1.875269385652   -1.380001690392   -0.366621867147
 N   -0.442311950347   -1.268899431924   -0.353527791705
 C   -1.499998063160   -0.467547401049   -0.356020836533
 N   -2.731991179616   -1.071346430129   -0.401426659742
 H   -2.740925647937   -2.071040316640   -0.231856051177
 H   -3.550568923819   -0.544918110729   -0.126526534945
 C   -1.431416064726    0.973829438146   -0.359504270199
 H   -2.319939780411    1.605147029390   -0.368986224226
 H    1.857329981943    1.067158873837   -0.368464590947
 K    0.916638729592    0.691450654757    1.034837134284
