14

 N    0.913028195704    0.692628661021   -0.521005816419
 C   -0.172418747199    1.515387630849   -0.517863945198
 H    0.019102092683    2.590444603348   -0.520368543740
 C    0.831164475022   -0.726641800705   -0.519988147535
 O    1.874907722340   -1.379883690766   -0.522468988847
 N   -0.442673613659   -1.268781432298   -0.509374913405
 C   -1.500359726472   -0.467429401423   -0.511867958233
 N   -2.732352842928   -1.071228430503   -0.557273781442
 H   -2.741287311249   -2.070922317014   -0.387703172877
 H   -3.550930587131   -0.544800111103   -0.282373656645
 C   -1.431777728038    0.973947437772   -0.515351391899
 H   -2.320301443723    1.605265029016   -0.524833345926
 H    1.856968318631    1.067276873463   -0.524311712647
 K    0.917669439384    0.691114365823    1.478988225014
