14

 N    0.912907641266    0.692667994229   -0.572954856986
 C   -0.172539301637    1.515426964057   -0.569812985765
 H    0.018981538245    2.590483936556   -0.572317584307
 C    0.831043920584   -0.726602467497   -0.571937188102
 O    1.874787167902   -1.379844357558   -0.574418029414
 N   -0.442794168097   -1.268742099090   -0.561323953972
 C   -1.500480280910   -0.467390068215   -0.563816998800
 N   -2.732473397366   -1.071189097295   -0.609222822009
 H   -2.741407865687   -2.070882983806   -0.439652213444
 H   -3.551051141569   -0.544760777895   -0.334322697212
 C   -1.431898282476    0.973986770980   -0.567300432466
 H   -2.320421998161    1.605304362224   -0.576782386493
 H    1.856847764193    1.067316206671   -0.576260753214
 K    0.918013009315    0.691002269512    1.627038588590
