14

 N    0.912726809611    0.692726994042   -0.650878417836
 C   -0.172720133292    1.515485963870   -0.647736546615
 H    0.018800706590    2.590542936369   -0.650241145157
 C    0.830863088929   -0.726543467684   -0.649860748952
 O    1.874606336247   -1.379785357745   -0.652341590264
 N   -0.442974999752   -1.268683099277   -0.639247514822
 C   -1.500661112565   -0.467331068402   -0.641740559650
 N   -2.732654229021   -1.071130097482   -0.687146382859
 H   -2.741588697342   -2.070823983993   -0.517575774294
 H   -3.551231973224   -0.544701778082   -0.412246258062
 C   -1.432079114131    0.974045770793   -0.645223993316
 H   -2.320602829816    1.605363362037   -0.654705947343
 H    1.856666932538    1.067375206484   -0.654184314064
 K    0.918528364211    0.690834125045    1.849114133955
