14

 N    0.912666532392    0.692746660646   -0.676852938120
 C   -0.172780410511    1.515505630474   -0.673711066899
 H    0.018740429371    2.590562602973   -0.676215665441
 C    0.830802811710   -0.726523801080   -0.675835269236
 O    1.874546059028   -1.379765691141   -0.678316110548
 N   -0.443035276971   -1.268663432673   -0.665222035106
 C   -1.500721389784   -0.467311401798   -0.667715079934
 N   -2.732714506240   -1.071110430878   -0.713120903143
 H   -2.741648974561   -2.070804317389   -0.543550294578
 H   -3.551292250443   -0.544682111478   -0.438220778346
 C   -1.432139391350    0.974065437397   -0.671198513600
 H   -2.320663107035    1.605383028641   -0.680680467627
 H    1.856606655319    1.067394873088   -0.680158834348
 K    0.918700149176    0.690778076889    1.923139315743
