14

 N    0.912606255173    0.692766327250   -0.702827458403
 C   -0.172840687730    1.515525297078   -0.699685587182
 H    0.018680152152    2.590582269577   -0.702190185724
 C    0.830742534491   -0.726504134476   -0.701809789519
 O    1.874485781809   -1.379746024537   -0.704290630831
 N   -0.443095554190   -1.268643766069   -0.691196555389
 C   -1.500781667003   -0.467291735194   -0.693689600217
 N   -2.732774783459   -1.071090764274   -0.739095423426
 H   -2.741709251780   -2.070784650785   -0.569524814861
 H   -3.551352527662   -0.544662444874   -0.464195298629
 C   -1.432199668569    0.974085104001   -0.697173033883
 H   -2.320723384254    1.605402695245   -0.706654987910
 H    1.856546378100    1.067414539692   -0.706133354631
 K    0.918871934142    0.690722028733    1.997164497531
