14

 N    0.912003482987    0.692962993293   -0.962572661237
 C   -0.173443459916    1.515721963121   -0.959430790016
 H    0.018077379966    2.590778935620   -0.961935388558
 C    0.830139762305   -0.726307468433   -0.961554992353
 O    1.873883009623   -1.379549358494   -0.964035833665
 N   -0.443698326376   -1.268447100026   -0.950941758223
 C   -1.501384439189   -0.467095069151   -0.953434803051
 N   -2.733377555645   -1.070894098231   -0.998840626260
 H   -2.742312023966   -2.070587984742   -0.829270017695
 H   -3.551955299848   -0.544465778831   -0.723940501463
 C   -1.432802440755    0.974281770044   -0.956918236717
 H   -2.321326156440    1.605599361288   -0.966400190744
 H    1.855943605914    1.067611205735   -0.965878557465
 K    0.920589783795    0.690161547177    2.737416315414
