14

 N    0.911943205768    0.692982659897   -0.988547181520
 C   -0.173503737135    1.515741629725   -0.985405310299
 H    0.018017102747    2.590798602224   -0.987909908841
 C    0.830079485086   -0.726287801829   -0.987529512636
 O    1.873822732404   -1.379529691890   -0.990010353948
 N   -0.443758603595   -1.268427433422   -0.976916278506
 C   -1.501444716408   -0.467075402547   -0.979409323334
 N   -2.733437832864   -1.070874431627   -1.024815146543
 H   -2.742372301185   -2.070568318138   -0.855244537978
 H   -3.552015577067   -0.544446112227   -0.749915021746
 C   -1.432862717974    0.974301436648   -0.982892757000
 H   -2.321386433659    1.605619027892   -0.992374711027
 H    1.855883328695    1.067630872339   -0.991853077748
 K    0.920761568761    0.690105499022    2.811441497202
