14

 N    0.911822651331    0.693021993106   -1.040496222087
 C   -0.173624291572    1.515780962934   -1.037354350866
 H    0.017896548310    2.590837935433   -1.039858949408
 C    0.829958930649   -0.726248468620   -1.039478553203
 O    1.873702177967   -1.379490358681   -1.041959394515
 N   -0.443879158032   -1.268388100213   -1.028865319073
 C   -1.501565270845   -0.467036069338   -1.031358363901
 N   -2.733558387301   -1.070835098418   -1.076764187110
 H   -2.742492855622   -2.070528984929   -0.907193578545
 H   -3.552136131504   -0.544406779018   -0.801864062313
 C   -1.432983272411    0.974340769857   -1.034841797567
 H   -2.321506988096    1.605658361101   -1.044323751594
 H    1.855762774258    1.067670205548   -1.043802118315
 K    0.921105138692    0.689993402710    2.959491860779
