14

 N    0.911641819675    0.693080992919   -1.118419782937
 C   -0.173805123228    1.515839962747   -1.115277911716
 H    0.017715716654    2.590896935246   -1.117782510258
 C    0.829778098993   -0.726189468807   -1.117402114053
 O    1.873521346311   -1.379431358868   -1.119882955365
 N   -0.444059989688   -1.268329100400   -1.106788879923
 C   -1.501746102501   -0.466977069525   -1.109281924751
 N   -2.733739218957   -1.070776098605   -1.154687747960
 H   -2.742673687278   -2.070469985116   -0.985117139395
 H   -3.552316963160   -0.544347779205   -0.879787623163
 C   -1.433164104067    0.974399769670   -1.112765358417
 H   -2.321687819752    1.605717360914   -1.122247312444
 H    1.855581942602    1.067729205361   -1.121725679165
 K    0.921620493588    0.689825258243    3.181567406144
