14

 N    0.911219879145    0.693218659148   -1.300241424921
 C   -0.174227063758    1.515977628976   -1.297099553700
 H    0.017293776124    2.591034601475   -1.299604152242
 C    0.829356158463   -0.726051802578   -1.299223756037
 O    1.873099405781   -1.379293692639   -1.301704597349
 N   -0.444481930218   -1.268191434171   -1.288610521907
 C   -1.502168043031   -0.466839403296   -1.291103566735
 N   -2.734161159487   -1.070638432376   -1.336509389944
 H   -2.743095627808   -2.070332318887   -1.166938781379
 H   -3.552738903690   -0.544210112976   -1.061609265147
 C   -1.433586044597    0.974537435899   -1.294587000401
 H   -2.322109760282    1.605855027143   -1.304068954428
 H    1.855160002072    1.067866871590   -1.303547321149
 K    0.922822988345    0.689432921154    3.699743678662
