14

 N    0.910978770270    0.693297325565   -1.404139506054
 C   -0.174468172633    1.516056295393   -1.400997634833
 H    0.017052667249    2.591113267892   -1.403502233375
 C    0.829115049588   -0.725973136161   -1.403121837170
 O    1.872858296906   -1.379215026222   -1.405602678482
 N   -0.444723039093   -1.268112767754   -1.392508603040
 C   -1.502409151906   -0.466760736879   -1.395001647868
 N   -2.734402268362   -1.070559765959   -1.440407471077
 H   -2.743336736683   -2.070253652470   -1.270836862512
 H   -3.552980012565   -0.544131446559   -1.165507346280
 C   -1.433827153472    0.974616102316   -1.398485081534
 H   -2.322350869157    1.605933693560   -1.407967035561
 H    1.854918893197    1.067945538007   -1.407445402282
 K    0.923510128207    0.689208728531    3.995844405815
