14

 N    0.910556829740    0.693434991795   -1.585961148038
 C   -0.174890113163    1.516193961623   -1.582819276817
 H    0.016630726719    2.591250934122   -1.585323875359
 C    0.828693109058   -0.725835469931   -1.584943479154
 O    1.872436356376   -1.379077359992   -1.587424320466
 N   -0.445144979623   -1.267975101524   -1.574330245024
 C   -1.502831092436   -0.466623070649   -1.576823289852
 N   -2.734824208892   -1.070422099729   -1.622229113061
 H   -2.743758677213   -2.070115986240   -1.452658504496
 H   -3.553401953095   -0.543993780329   -1.347328988264
 C   -1.434249094002    0.974753768546   -1.580306723518
 H   -2.322772809687    1.606071359790   -1.589788677545
 H    1.854496952667    1.068083204237   -1.589267044266
 K    0.924712622964    0.688816391442    4.514020678333
