14

 N    0.910436275302    0.693474325004   -1.637910188604
 C   -0.175010667601    1.516233294832   -1.634768317383
 H    0.016510172281    2.591290267331   -1.637272915925
 C    0.828572554620   -0.725796136722   -1.636892519720
 O    1.872315801938   -1.379038026783   -1.639373361032
 N   -0.445265534061   -1.267935768315   -1.626279285590
 C   -1.502951646874   -0.466583737440   -1.628772330418
 N   -2.734944763330   -1.070382766520   -1.674178153627
 H   -2.743879231651   -2.070076653031   -1.504607545062
 H   -3.553522507533   -0.543954447120   -1.399278028830
 C   -1.434369648440    0.974793101755   -1.632255764084
 H   -2.322893364125    1.606110692999   -1.641737718111
 H    1.854376398229    1.068122537446   -1.641216084832
 K    0.925056192895    0.688704295131    4.662071041909
