14

 N    0.910195166428    0.693552991421   -1.741808269738
 C   -0.175251776475    1.516311961249   -1.738666398517
 H    0.016269063407    2.591368933748   -1.741170997059
 C    0.828331445746   -0.725717470305   -1.740790600854
 O    1.872074693064   -1.378959360366   -1.743271442166
 N   -0.445506642935   -1.267857101898   -1.730177366724
 C   -1.503192755748   -0.466505071023   -1.732670411552
 N   -2.735185872204   -1.070304100103   -1.778076234761
 H   -2.744120340525   -2.069997986614   -1.608505626196
 H   -3.553763616407   -0.543875780703   -1.503176109964
 C   -1.434610757314    0.974871768172   -1.736153845218
 H   -2.323134472999    1.606189359416   -1.745635799245
 H    1.854135289355    1.068201203863   -1.745114165966
 K    0.925743332757    0.688480102508    4.958171769062
