14

 N    0.910134889209    0.693572658025   -1.767782790021
 C   -0.175312053694    1.516331627853   -1.764640918800
 H    0.016208786188    2.591388600352   -1.767145517342
 C    0.828271168527   -0.725697803701   -1.766765121137
 O    1.872014415845   -1.378939693762   -1.769245962449
 N   -0.445566920154   -1.267837435294   -1.756151887007
 C   -1.503253032967   -0.466485404419   -1.758644931835
 N   -2.735246149423   -1.070284433499   -1.804050755044
 H   -2.744180617744   -2.069978320010   -1.634480146479
 H   -3.553823893626   -0.543856114099   -1.529150630247
 C   -1.434671034533    0.974891434776   -1.762128365501
 H   -2.323194750218    1.606209026020   -1.771610319528
 H    1.854075012136    1.068220870467   -1.771088686249
 K    0.925915117722    0.688424054353    5.032196950851
