14

 N    0.910074611990    0.693592324629   -1.793757310305
 C   -0.175372330913    1.516351294457   -1.790615439084
 H    0.016148508969    2.591408266956   -1.793120037626
 C    0.828210891308   -0.725678137097   -1.792739641421
 O    1.871954138626   -1.378920027158   -1.795220482733
 N   -0.445627197373   -1.267817768690   -1.782126407291
 C   -1.503313310186   -0.466465737815   -1.784619452119
 N   -2.735306426642   -1.070264766895   -1.830025275328
 H   -2.744240894963   -2.069958653406   -1.660454666763
 H   -3.553884170845   -0.543836447495   -1.555125150531
 C   -1.434731311752    0.974911101380   -1.788102885785
 H   -2.323255027437    1.606228692624   -1.797584839812
 H    1.854014734917    1.068240537071   -1.797063206533
 K    0.926086902687    0.688368006197    5.106222132639
