14

 N    0.910014334772    0.693611991233   -1.819731830588
 C   -0.175432608131    1.516370961061   -1.816589959367
 H    0.016088231751    2.591427933560   -1.819094557909
 C    0.828150614090   -0.725658470493   -1.818714161704
 O    1.871893861408   -1.378900360554   -1.821195003016
 N   -0.445687474591   -1.267798102086   -1.808100927574
 C   -1.503373587404   -0.466446071211   -1.810593972402
 N   -2.735366703860   -1.070245100291   -1.855999795611
 H   -2.744301172181   -2.069938986802   -1.686429187046
 H   -3.553944448063   -0.543816780891   -1.581099670814
 C   -1.434791588970    0.974930767984   -1.814077406068
 H   -2.323315304655    1.606248359228   -1.823559360095
 H    1.853954457699    1.068260203675   -1.823037726816
 K    0.926258687653    0.688311958041    5.180247314427
