14

 N    0.909592394241    0.693749657463   -2.001553472572
 C   -0.175854548662    1.516508627291   -1.998411601351
 H    0.015666291220    2.591565599790   -2.000916199893
 C    0.827728673559   -0.725520804263   -2.000535803688
 O    1.871471920877   -1.378762694324   -2.003016645000
 N   -0.446109415122   -1.267660435856   -1.989922569558
 C   -1.503795527935   -0.466308404981   -1.992415614386
 N   -2.735788644391   -1.070107434061   -2.037821437595
 H   -2.744723112712   -2.069801320572   -1.868250829030
 H   -3.554366388594   -0.543679114661   -1.762921312798
 C   -1.435213529501    0.975068434214   -1.995899048052
 H   -2.323737245186    1.606386025458   -2.005381002079
 H    1.853532517168    1.068397869905   -2.004859368800
 K    0.927461182410    0.687919620952    5.698423586945
