14

 N    0.909110176492    0.693906990297   -2.209349634839
 C   -0.176336766411    1.516665960125   -2.206207763618
 H    0.015184073471    2.591722932624   -2.208712362160
 C    0.827246455810   -0.725363471429   -2.208331965955
 O    1.870989703128   -1.378605361490   -2.210812807267
 N   -0.446591632871   -1.267503103022   -2.197718731825
 C   -1.504277745684   -0.466151072147   -2.200211776653
 N   -2.736270862140   -1.069950101227   -2.245617599862
 H   -2.745205330461   -2.069643987738   -2.076046991297
 H   -3.554848606343   -0.543521781827   -1.970717475065
 C   -1.435695747250    0.975225767048   -2.203695210319
 H   -2.324219462935    1.606543358292   -2.213177164346
 H    1.853050299419    1.068555202739   -2.212655531067
 K    0.928835462133    0.687471235707    6.290625041251
