14

 N    0.908567681524    0.694083989736   -2.443120317389
 C   -0.176879261379    1.516842959564   -2.439978446168
 H    0.014641578503    2.591899932063   -2.442483044710
 C    0.826703960842   -0.725186471990   -2.442102648505
 O    1.870447208160   -1.378428362051   -2.444583489817
 N   -0.447134127839   -1.267326103583   -2.431489414375
 C   -1.504820240652   -0.465974072708   -2.433982459203
 N   -2.736813357108   -1.069773101788   -2.479388282412
 H   -2.745747825429   -2.069466988299   -2.309817673847
 H   -3.555391101311   -0.543344782388   -2.204488157615
 C   -1.436238242218    0.975402766487   -2.437465892869
 H   -2.324761957903    1.606720357731   -2.446947846896
 H    1.852507804451    1.068732202178   -2.446426213617
 K    0.930381526822    0.686966802306    6.956851677346
