14

 N    0.908507404306    0.694103656340   -2.469094837672
 C   -0.176939538597    1.516862626168   -2.465952966451
 H    0.014581301285    2.591919598667   -2.468457564993
 C    0.826643683624   -0.725166805386   -2.468077168788
 O    1.870386930942   -1.378408695447   -2.470558010100
 N   -0.447194405057   -1.267306436979   -2.457463934658
 C   -1.504880517870   -0.465954406104   -2.459956979486
 N   -2.736873634326   -1.069753435184   -2.505362802695
 H   -2.745808102647   -2.069447321695   -2.335792194130
 H   -3.555451378529   -0.543325115784   -2.230462677898
 C   -1.436298519436    0.975422433091   -2.463440413152
 H   -2.324822235121    1.606740024335   -2.472922367179
 H    1.852447527233    1.068751868782   -2.472400733900
 K    0.930553311787    0.686910754151    7.030876859134
