14

 N    0.908447127087    0.694123322944   -2.495069357956
 C   -0.176999815816    1.516882292772   -2.491927486735
 H    0.014521024066    2.591939265271   -2.494432085277
 C    0.826583406405   -0.725147138782   -2.494051689072
 O    1.870326653723   -1.378389028843   -2.496532530384
 N   -0.447254682276   -1.267286770375   -2.483438454942
 C   -1.504940795089   -0.465934739500   -2.485931499770
 N   -2.736933911545   -1.069733768580   -2.531337322979
 H   -2.745868379866   -2.069427655091   -2.361766714414
 H   -3.555511655748   -0.543305449180   -2.256437198182
 C   -1.436358796655    0.975442099695   -2.489414933436
 H   -2.324882512340    1.606759690939   -2.498896887463
 H    1.852387250014    1.068771535386   -2.498375254184
 K    0.930725096752    0.686854705995    7.104902040922
