14

 N    0.908266295431    0.694182322757   -2.572992918806
 C   -0.177180647472    1.516941292585   -2.569851047585
 H    0.014340192410    2.591998265084   -2.572355646127
 C    0.826402574749   -0.725088138969   -2.571975249922
 O    1.870145822067   -1.378330029030   -2.574456091234
 N   -0.447435513932   -1.267227770562   -2.561362015792
 C   -1.505121626745   -0.465875739687   -2.563855060620
 N   -2.737114743201   -1.069674768767   -2.609260883829
 H   -2.746049211522   -2.069368655278   -2.439690275264
 H   -3.555692487404   -0.543246449367   -2.334360759032
 C   -1.436539628311    0.975501099508   -2.567338494286
 H   -2.325063343996    1.606818690752   -2.576820448313
 H    1.852206418358    1.068830535199   -2.576298815034
 K    0.931240451649    0.686686561528    7.326977586287
