13

 C    1.766635619838    1.126851952846    2.257655333427
 H    1.300015619838    2.119018952846    2.257655333427
 H    2.403784619838    1.022434952846    3.150161333427
 H    2.403784619838    1.022434952846    1.365149333427
 C    0.668460619838    0.075766952846    2.257655333427
 O   -0.537702380162    0.353820952846    2.257655333427
 N    1.099389619838   -1.224382047154    2.257655333427
 H    2.091566619838   -1.418283047154    2.257655333427
 C    0.141054619838   -2.322910047154    2.257655333427
 H   -0.503010380162   -2.274431047154    3.148363333427
 H   -0.503010380162   -2.274431047154    1.366947333427
 H    0.694280619838   -3.271335047154    2.257655333427
RB   -0.537702380162    0.353820952846   -1.942344666573
