13

 C    1.766635619838    1.126851952846    4.085281079534
 H    1.300015619838    2.119018952846    4.085281079534
 H    2.403784619838    1.022434952846    4.977787079534
 H    2.403784619838    1.022434952846    3.192775079534
 C    0.668460619838    0.075766952846    4.085281079534
 O   -0.537702380162    0.353820952846    4.085281079534
 N    1.099389619838   -1.224382047154    4.085281079534
 H    2.091566619838   -1.418283047154    4.085281079534
 C    0.141054619838   -2.322910047154    4.085281079534
 H   -0.503010380162   -2.274431047154    4.975989079534
 H   -0.503010380162   -2.274431047154    3.194573079534
 H    0.694280619838   -3.271335047154    4.085281079534
RB   -0.537702380162    0.353820952846   -3.514718920466
