13

 C    1.766635619838    1.126851952846    4.407803270023
 H    1.300015619838    2.119018952846    4.407803270023
 H    2.403784619838    1.022434952846    5.300309270023
 H    2.403784619838    1.022434952846    3.515297270023
 C    0.668460619838    0.075766952846    4.407803270023
 O   -0.537702380162    0.353820952846    4.407803270023
 N    1.099389619838   -1.224382047154    4.407803270023
 H    2.091566619838   -1.418283047154    4.407803270023
 C    0.141054619838   -2.322910047154    4.407803270023
 H   -0.503010380162   -2.274431047154    5.298511270023
 H   -0.503010380162   -2.274431047154    3.517095270023
 H    0.694280619838   -3.271335047154    4.407803270023
RB   -0.537702380162    0.353820952846   -3.792196729977
