13

 C    1.766635619838    1.126851952846    4.891586555757
 H    1.300015619838    2.119018952846    4.891586555757
 H    2.403784619838    1.022434952846    5.784092555757
 H    2.403784619838    1.022434952846    3.999080555757
 C    0.668460619838    0.075766952846    4.891586555757
 O   -0.537702380162    0.353820952846    4.891586555757
 N    1.099389619838   -1.224382047154    4.891586555757
 H    2.091566619838   -1.418283047154    4.891586555757
 C    0.141054619838   -2.322910047154    4.891586555757
 H   -0.503010380162   -2.274431047154    5.782294555757
 H   -0.503010380162   -2.274431047154    4.000878555757
 H    0.694280619838   -3.271335047154    4.891586555757
RB   -0.537702380162    0.353820952846   -4.208413444243
