13

 C    1.766635619838    1.126851952846    5.106601349417
 H    1.300015619838    2.119018952846    5.106601349417
 H    2.403784619838    1.022434952846    5.999107349417
 H    2.403784619838    1.022434952846    4.214095349417
 C    0.668460619838    0.075766952846    5.106601349417
 O   -0.537702380162    0.353820952846    5.106601349417
 N    1.099389619838   -1.224382047154    5.106601349417
 H    2.091566619838   -1.418283047154    5.106601349417
 C    0.141054619838   -2.322910047154    5.106601349417
 H   -0.503010380162   -2.274431047154    5.997309349417
 H   -0.503010380162   -2.274431047154    4.215893349417
 H    0.694280619838   -3.271335047154    5.106601349417
RB   -0.537702380162    0.353820952846   -4.393398650583
