13

 C    1.766635619838    1.126851952846    5.267862444662
 H    1.300015619838    2.119018952846    5.267862444662
 H    2.403784619838    1.022434952846    6.160368444662
 H    2.403784619838    1.022434952846    4.375356444662
 C    0.668460619838    0.075766952846    5.267862444662
 O   -0.537702380162    0.353820952846    5.267862444662
 N    1.099389619838   -1.224382047154    5.267862444662
 H    2.091566619838   -1.418283047154    5.267862444662
 C    0.141054619838   -2.322910047154    5.267862444662
 H   -0.503010380162   -2.274431047154    6.158570444662
 H   -0.503010380162   -2.274431047154    4.377154444662
 H    0.694280619838   -3.271335047154    5.267862444662
RB   -0.537702380162    0.353820952846   -4.532137555338
