13

 N    0.043935114207    2.166021328626   -0.000239789564
 C    1.217674697290    2.893393520136   -0.000552268734
 H    1.099957837227    3.978711979180   -0.000668116293
 C   -0.001840858873    0.772809536759   -0.000624844133
 O   -1.053429027429    0.138706222918   -0.000281477029
 N    1.258599682268    0.189339480627   -0.000207940811
 H    1.268415479391   -0.828945631239   -0.000235244906
 C    2.519853971501    0.825394967590   -0.000190845975
 O    3.553546899569    0.156131133174   -0.000936511639
 C    2.438375179741    2.285942028980   -0.000690743422
 H    3.361775318043    2.863002287846   -0.001031420199
 H   -0.859802061741    2.625675449986   -0.000441441164
CS   -1.032507501348   -0.961094590196    0.000397654643
