13

 N    0.042903073923    2.220273525111   -0.000273290526
 C    1.216642657006    2.947645716621   -0.000585769696
 H    1.098925796943    4.032964175665   -0.000701617255
 C   -0.002872899157    0.827061733244   -0.000658345095
 O   -1.054461067713    0.192958419403   -0.000314977991
 N    1.257567641984    0.243591677112   -0.000241441773
 H    1.267383439107   -0.774693434754   -0.000268745868
 C    2.518821931217    0.879647164075   -0.000224346937
 O    3.552514859285    0.210383329659   -0.000970012601
 C    2.437343139457    2.340194225465   -0.000724244384
 H    3.360743277759    2.917254484331   -0.001064921161
 H   -0.860834102025    2.679927646471   -0.000474942126
CS   -1.031637584716   -1.006824285812    0.000425892925
