13

 N    0.041871033638    2.274525721596   -0.000306791488
 C    1.215610616721    3.001897913106   -0.000619270658
 H    1.097893756658    4.087216372150   -0.000735118217
 C   -0.003904939442    0.881313929729   -0.000691846057
 O   -1.055493107998    0.247210615888   -0.000348478953
 N    1.256535601699    0.297843873597   -0.000274942735
 H    1.266351398822   -0.720441238269   -0.000302246830
 C    2.517789890932    0.933899360560   -0.000257847899
 O    3.551482819000    0.264635526144   -0.001003513563
 C    2.436311099172    2.394446421950   -0.000757745346
 H    3.359711237474    2.971506680816   -0.001098422123
 H   -0.861866142310    2.734179842956   -0.000508443088
CS   -1.030767668084   -1.052553981428    0.000454131206
