13

 N    0.040838993354    2.328777918081   -0.000340292449
 C    1.214578576437    3.056150109591   -0.000652771619
 H    1.096861716374    4.141468568635   -0.000768619178
 C   -0.004936979726    0.935566126214   -0.000725347018
 O   -1.056525148282    0.301462812373   -0.000381979914
 N    1.255503561415    0.352096070082   -0.000308443696
 H    1.265319358538   -0.666189041784   -0.000335747791
 C    2.516757850648    0.988151557045   -0.000291348860
 O    3.550450778716    0.318887722629   -0.001037014524
 C    2.435279058888    2.448698618435   -0.000791246307
 H    3.358679197190    3.025758877301   -0.001131923084
 H   -0.862898182594    2.788432039441   -0.000541944049
CS   -1.029897751452   -1.098283677045    0.000482369487
