13

 N    0.039806953070    2.383030114566   -0.000373793411
 C    1.213546536153    3.110402306076   -0.000686272581
 H    1.095829676090    4.195720765120   -0.000802120140
 C   -0.005969020010    0.989818322699   -0.000758847980
 O   -1.057557188566    0.355715008858   -0.000415480876
 N    1.254471521131    0.406348266567   -0.000341944658
 H    1.264287318254   -0.611936845299   -0.000369248753
 C    2.515725810364    1.042403753530   -0.000324849822
 O    3.549418738432    0.373139919114   -0.001070515486
 C    2.434247018604    2.502950814920   -0.000824747269
 H    3.357647156906    3.080011073786   -0.001165424046
 H   -0.863930222878    2.842684235926   -0.000575445011
CS   -1.029027834819   -1.144013372661    0.000510607768
