13

 N    0.038774912786    2.437282311051   -0.000407294373
 C    1.212514495869    3.164654502561   -0.000719773543
 H    1.094797635806    4.249972961605   -0.000835621102
 C   -0.007001060294    1.044070519184   -0.000792348942
 O   -1.058589228850    0.409967205343   -0.000448981838
 N    1.253439480847    0.460600463052   -0.000375445620
 H    1.263255277970   -0.557684648814   -0.000402749715
 C    2.514693770080    1.096655950015   -0.000358350784
 O    3.548386698148    0.427392115599   -0.001104016448
 C    2.433214978320    2.557203011405   -0.000858248231
 H    3.356615116622    3.134263270271   -0.001198925008
 H   -0.864962263162    2.896936432411   -0.000608945973
CS   -1.028157918187   -1.189743068277    0.000538846050
