13

 N    0.036710832218    2.545786704021   -0.000474296296
 C    1.210450415301    3.273158895531   -0.000786775466
 H    1.092733555238    4.358477354575   -0.000902623025
 C   -0.009065140862    1.152574912154   -0.000859350865
 O   -1.060653309418    0.518471598313   -0.000515983761
 N    1.251375400279    0.569104856022   -0.000442447543
 H    1.261191197402   -0.449180255844   -0.000469751638
 C    2.512629689512    1.205160342985   -0.000425352707
 O    3.546322617580    0.535896508569   -0.001171018371
 C    2.431150897752    2.665707404375   -0.000925250154
 H    3.354551036054    3.242767663241   -0.001265926931
 H   -0.867026343730    3.005440825381   -0.000675947896
CS   -1.026418084923   -1.281202459510    0.000595322612
