13

 N    0.034646751649    2.654291096991   -0.000541298220
 C    1.208386334732    3.381663288501   -0.000853777390
 H    1.090669474669    4.466981747545   -0.000969624949
 C   -0.011129221431    1.261079305124   -0.000926352789
 O   -1.062717389987    0.626975991283   -0.000582985685
 N    1.249311319710    0.677609248992   -0.000509449467
 H    1.259127116833   -0.340675862874   -0.000536753562
 C    2.510565608943    1.313664735955   -0.000492354631
 O    3.544258537011    0.644400901539   -0.001238020295
 C    2.429086817183    2.774211797345   -0.000992252078
 H    3.352486955485    3.351272056211   -0.001332928855
 H   -0.869090424299    3.113945218351   -0.000742949820
CS   -1.024678251658   -1.372661850743    0.000651799175
