13

 N    0.031550630797    2.817047686446   -0.000641801105
 C    1.205290213880    3.544419877956   -0.000954280275
 H    1.087573353817    4.629738337000   -0.001070127834
 C   -0.014225342283    1.423835894579   -0.001026855674
 O   -1.065813510839    0.789732580738   -0.000683488570
 N    1.246215198858    0.840365838447   -0.000609952352
 H    1.256030995981   -0.177919273419   -0.000637256447
 C    2.507469488091    1.476421325410   -0.000592857516
 O    3.541162416159    0.807157490994   -0.001338523180
 C    2.425990696331    2.936968386800   -0.001092754963
 H    3.349390834633    3.514028645666   -0.001433431740
 H   -0.872186545151    3.276701807806   -0.000843452705
CS   -1.022068501761   -1.509850937592    0.000736514018
