13

 N    0.025358389092    3.142560865356   -0.000842806875
 C    1.199097972175    3.869933056866   -0.001155286045
 H    1.081381112112    4.955251515910   -0.001271133604
 C   -0.020417583988    1.749349073489   -0.001227861444
 O   -1.072005752544    1.115245759648   -0.000884494340
 N    1.240022957153    1.165879017357   -0.000810958122
 H    1.249838754276    0.147593905491   -0.000838262217
 C    2.501277246386    1.801934504320   -0.000793863286
 O    3.534970174454    1.132670669904   -0.001539528950
 C    2.419798454626    3.262481565710   -0.001293760733
 H    3.343198592928    3.839541824576   -0.001634437510
 H   -0.878378786856    3.602214986716   -0.001044458475
CS   -1.016849001968   -1.784229111290    0.000905943706
