13

 N    0.022262268239    3.305317454811   -0.000943309760
 C    1.196001851322    4.032689646321   -0.001255788930
 H    1.078284991259    5.118008105365   -0.001371636489
 C   -0.023513704841    1.912105662944   -0.001328364329
 O   -1.075101873397    1.278002349103   -0.000984997225
 N    1.236926836300    1.328635606812   -0.000911461007
 H    1.246742633423    0.310350494946   -0.000938765102
 C    2.498181125533    1.964691093775   -0.000894366171
 O    3.531874053601    1.295427259359   -0.001640031835
 C    2.416702333773    3.425238155165   -0.001394263618
 H    3.340102472075    4.002298414031   -0.001734940395
 H   -0.881474907709    3.764971576171   -0.001144961360
CS   -1.014239252071   -1.921418198139    0.000990658549
