13

 N    0.021230227955    3.359569651295   -0.000976810722
 C    1.194969811038    4.086941842805   -0.001289289892
 H    1.077252950975    5.172260301849   -0.001405137451
 C   -0.024545745125    1.966357859428   -0.001361865291
 O   -1.076133913681    1.332254545587   -0.001018498187
 N    1.235894796016    1.382887803296   -0.000944961969
 H    1.245710593139    0.364602691430   -0.000972266064
 C    2.497149085249    2.018943290259   -0.000927867133
 O    3.530842013317    1.349679455843   -0.001673532797
 C    2.415670293489    3.479490351649   -0.001427764580
 H    3.339070431791    4.056550610515   -0.001768441357
 H   -0.882506947993    3.819223772655   -0.001178462322
CS   -1.013369335439   -1.967147893755    0.001018896831
