13

 N    0.020198187671    3.413821847780   -0.001010311684
 C    1.193937770754    4.141194039290   -0.001322790854
 H    1.076220910691    5.226512498334   -0.001438638413
 C   -0.025577785409    2.020610055913   -0.001395366253
 O   -1.077165953965    1.386506742072   -0.001051999149
 N    1.234862755732    1.437139999781   -0.000978462931
 H    1.244678552855    0.418854887915   -0.001005767026
 C    2.496117044965    2.073195486744   -0.000961368095
 O    3.529809973033    1.403931652328   -0.001707033759
 C    2.414638253205    3.533742548134   -0.001461265542
 H    3.338038391507    4.110802807000   -0.001801942319
 H   -0.883538988277    3.873475969140   -0.001211963284
CS   -1.012499418806   -2.012877589371    0.001047135112
