13

 N    0.018134107102    3.522326240750   -0.001077313607
 C    1.191873690185    4.249698432260   -0.001389792777
 H    1.074156830122    5.335016891304   -0.001505640336
 C   -0.027641865978    2.129114448883   -0.001462368176
 O   -1.079230034534    1.495011135042   -0.001119001072
 N    1.232798675163    1.545644392751   -0.001045464854
 H    1.242614472286    0.527359280885   -0.001072768949
 C    2.494052964396    2.181699879714   -0.001028370018
 O    3.527745892464    1.512436045298   -0.001774035682
 C    2.412574172636    3.642246941104   -0.001528267465
 H    3.335974310938    4.219307199970   -0.001868944242
 H   -0.885603068846    3.981980362110   -0.001278965207
CS   -1.010759585542   -2.104336980604    0.001103611674
