13

 N    0.012973905682    3.793587223175   -0.001244818416
 C    1.186713488765    4.520959414685   -0.001557297586
 H    1.068996628702    5.606277873729   -0.001673145145
 C   -0.032802067398    2.400375431308   -0.001629872985
 O   -1.084390235954    1.766272117467   -0.001286505881
 N    1.227638473743    1.816905375176   -0.001212969663
 H    1.237454270866    0.798620263310   -0.001240273758
 C    2.488892762976    2.452960862139   -0.001195874827
 O    3.522585691044    1.783697027723   -0.001941540491
 C    2.407413971216    3.913507923529   -0.001695772274
 H    3.330814109518    4.490568182395   -0.002036449051
 H   -0.890763270266    4.253241344535   -0.001446470016
CS   -1.006410002380   -2.332985458686    0.001244803081
