13

 N    0.010909825113    3.902091616145   -0.001311820339
 C    1.184649408196    4.629463807655   -0.001624299509
 H    1.066932548133    5.714782266699   -0.001740147068
 C   -0.034866147967    2.508879824278   -0.001696874908
 O   -1.086454316523    1.874776510437   -0.001353507804
 N    1.225574393174    1.925409768146   -0.001279971586
 H    1.235390190297    0.907124656280   -0.001307275681
 C    2.486828682407    2.561465255109   -0.001262876750
 O    3.520521610475    1.892201420693   -0.002008542414
 C    2.405349890647    4.022012316499   -0.001762774197
 H    3.328750028949    4.599072575365   -0.002103450974
 H   -0.892827350835    4.361745737505   -0.001513471939
CS   -1.004670169116   -2.424444849918    0.001301279643
