13

 N    0.007813704261    4.064848205600   -0.001412323225
 C    1.181553287344    4.792220397110   -0.001724802395
 H    1.063836427281    5.877538856154   -0.001840649954
 C   -0.037962268819    2.671636413733   -0.001797377794
 O   -1.089550437375    2.037533099892   -0.001454010690
 N    1.222478272322    2.088166357601   -0.001380474472
 H    1.232294069445    1.069881245735   -0.001407778567
 C    2.483732561555    2.724221844564   -0.001363379636
 O    3.517425489623    2.054958010148   -0.002109045300
 C    2.402253769795    4.184768905954   -0.001863277083
 H    3.325653908097    4.761829164820   -0.002203953860
 H   -0.895923471687    4.524502326960   -0.001613974825
CS   -1.002060419219   -2.561633936767    0.001385994487
