13

 N    0.004717583408    4.227604795055   -0.001512826110
 C    1.178457166491    4.954976986565   -0.001825305280
 H    1.060740306428    6.040295445609   -0.001941152839
 C   -0.041058389672    2.834393003188   -0.001897880679
 O   -1.092646558228    2.200289689347   -0.001554513575
 N    1.219382151469    2.250922947056   -0.001480977357
 H    1.229197948592    1.232637835190   -0.001508281452
 C    2.480636440702    2.886978434019   -0.001463882521
 O    3.514329368770    2.217714599603   -0.002209548185
 C    2.399157648942    4.347525495409   -0.001963779968
 H    3.322557787244    4.924585754275   -0.002304456745
 H   -0.899019592540    4.687258916415   -0.001714477710
CS   -0.999450669322   -2.698823023616    0.001470709331
