13

 N    0.001621462556    4.390361384510   -0.001613328995
 C    1.175361045639    5.117733576020   -0.001925808165
 H    1.057644185576    6.203052035064   -0.002041655724
 C   -0.044154510524    2.997149592643   -0.001998383564
 O   -1.095742679080    2.363046278802   -0.001655016460
 N    1.216286030617    2.413679536511   -0.001581480242
 H    1.226101827740    1.395394424645   -0.001608784337
 C    2.477540319850    3.049735023474   -0.001564385406
 O    3.511233247918    2.380471189058   -0.002310051070
 C    2.396061528090    4.510282084864   -0.002064282853
 H    3.319461666392    5.087342343730   -0.002404959630
 H   -0.902115713392    4.850015505870   -0.001814980595
CS   -0.996840919426   -2.836012110465    0.001555424174
