13

 N   -0.000442618013    4.498865777480   -0.001680330918
 C    1.173296965070    5.226237968990   -0.001992810088
 H    1.055580105007    6.311556428034   -0.002108657647
 C   -0.046218591093    3.105653985613   -0.002065385487
 O   -1.097806759649    2.471550671772   -0.001722018383
 N    1.214221950048    2.522183929481   -0.001648482165
 H    1.224037747171    1.503898817615   -0.001675786260
 C    2.475476239281    3.158239416444   -0.001631387329
 O    3.509169167349    2.488975582028   -0.002377052993
 C    2.393997447521    4.618786477834   -0.002131284776
 H    3.317397585823    5.195846736700   -0.002471961553
 H   -0.904179793961    4.958519898840   -0.001881982518
CS   -0.995101086161   -2.927471501698    0.001611900737
