13

 N   -0.002506698581    4.607370170450   -0.001747332842
 C    1.171232884502    5.334742361960   -0.002059812012
 H    1.053516024439    6.420060821004   -0.002175659571
 C   -0.048282671661    3.214158378583   -0.002132387411
 O   -1.099870840217    2.580055064742   -0.001789020307
 N    1.212157869480    2.630688322451   -0.001715484089
 H    1.221973666603    1.612403210585   -0.001742788184
 C    2.473412158713    3.266743809414   -0.001698389253
 O    3.507105086781    2.597479974998   -0.002444054917
 C    2.391933366953    4.727290870804   -0.002198286700
 H    3.315333505255    5.304351129670   -0.002538963477
 H   -0.906243874529    5.067024291810   -0.001948984442
CS   -0.993361252897   -3.018930892931    0.001668377299
