13

 N   -0.007666900002    4.878631152874   -0.001914837650
 C    1.166072683081    5.606003344384   -0.002227316820
 H    1.048355823018    6.691321803428   -0.002343164379
 C   -0.053442873082    3.485419361007   -0.002299892219
 O   -1.105031041638    2.851316047166   -0.001956525115
 N    1.206997668059    2.901949304875   -0.001882988897
 H    1.216813465182    1.883664193009   -0.001910292992
 C    2.468251957292    3.538004791838   -0.001865894061
 O    3.501944885360    2.868740957422   -0.002611559725
 C    2.386773165532    4.998551853228   -0.002365791508
 H    3.310173303834    5.575612112094   -0.002706468285
 H   -0.911404075950    5.338285274234   -0.002116489250
CS   -0.989011669735   -3.247579371012    0.001809568706
