13

 N   -0.008698940286    4.932883349359   -0.001948338612
 C    1.165040642797    5.660255540869   -0.002260817782
 H    1.047323782734    6.745573999913   -0.002376665341
 C   -0.054474913366    3.539671557492   -0.002333393181
 O   -1.106063081922    2.905568243651   -0.001990026077
 N    1.205965627775    2.956201501360   -0.001916489859
 H    1.215781424898    1.937916389494   -0.001943793954
 C    2.467219917008    3.592256988323   -0.001899395023
 O    3.500912845076    2.922993153907   -0.002645060687
 C    2.385741125248    5.052804049713   -0.002399292470
 H    3.309141263550    5.629864308579   -0.002739969247
 H   -0.912436116234    5.392537470719   -0.002149990212
CS   -0.988141753103   -3.293309066629    0.001837806987
