13

 N   -0.016955262560    5.366900921239   -0.002216346306
 C    1.156784320523    6.094273112749   -0.002528825476
 H    1.039067460460    7.179591571793   -0.002644673035
 C   -0.062731235640    3.973689129372   -0.002601400875
 O   -1.114319404196    3.339585815531   -0.002258033771
 N    1.197709305501    3.390219073240   -0.002184497553
 H    1.207525102624    2.371933961374   -0.002211801648
 C    2.458963594734    4.026274560203   -0.002167402717
 O    3.492656522802    3.357010725787   -0.002913068381
 C    2.377484802974    5.486821621593   -0.002667300164
 H    3.300884941276    6.063881880459   -0.003007976941
 H   -0.920692438508    5.826555042599   -0.002417997906
CS   -0.981182420045   -3.659146631559    0.002063713237
