13

 N   -0.017987302844    5.421153117724   -0.002249847268
 C    1.155752280239    6.148525309234   -0.002562326438
 H    1.038035420176    7.233843768278   -0.002678173997
 C   -0.063763275924    4.027941325857   -0.002634901837
 O   -1.115351444480    3.393838012016   -0.002291534733
 N    1.196677265217    3.444471269725   -0.002217998515
 H    1.206493062340    2.426186157859   -0.002245302610
 C    2.457931554450    4.080526756688   -0.002200903679
 O    3.491624482518    3.411262922272   -0.002946569343
 C    2.376452762690    5.541073818078   -0.002700801126
 H    3.299852900992    6.118134076944   -0.003041477903
 H   -0.921724478792    5.880807239084   -0.002451498868
CS   -0.980312503413   -3.704876327176    0.002091951518
