13

 N   -0.020051383412    5.529657510694   -0.002316849191
 C    1.153688199671    6.257029702204   -0.002629328361
 H    1.035971339608    7.342348161248   -0.002745175920
 C   -0.065827356492    4.136445718827   -0.002701903760
 O   -1.117415525048    3.502342404986   -0.002358536656
 N    1.194613184649    3.552975662695   -0.002285000438
 H    1.204428981772    2.534690550829   -0.002312304533
 C    2.455867473882    4.189031149658   -0.002267905602
 O    3.489560401950    3.519767315242   -0.003013571266
 C    2.374388682122    5.649578211048   -0.002767803049
 H    3.297788820424    6.226638469914   -0.003108479826
 H   -0.923788559360    5.989311632054   -0.002518500791
CS   -0.978572670148   -3.796335718408    0.002148428080
