13

 N   -0.024179544549    5.746666296634   -0.002450853038
 C    1.149560038534    6.474038488144   -0.002763332208
 H    1.031843178471    7.559356947188   -0.002879179767
 C   -0.069955517629    4.353454504767   -0.002835907607
 O   -1.121543686185    3.719351190926   -0.002492540503
 N    1.190485023512    3.769984448635   -0.002419004285
 H    1.200300820635    2.751699336769   -0.002446308380
 C    2.451739312745    4.406039935598   -0.002401909449
 O    3.485432240813    3.736776101182   -0.003147575113
 C    2.370260520985    5.866586996988   -0.002901806896
 H    3.293660659287    6.443647255854   -0.003242483673
 H   -0.927916720497    6.206320417994   -0.002652504638
CS   -0.975093003619   -3.979254500874    0.002261381205
