13

 N   -0.026243625117    5.855170689604   -0.002517854961
 C    1.147495957966    6.582542881114   -0.002830334131
 H    1.029779097903    7.667861340158   -0.002946181690
 C   -0.072019598197    4.461958897737   -0.002902909530
 O   -1.123607766753    3.827855583896   -0.002559542426
 N    1.188420942944    3.878488841605   -0.002486006208
 H    1.198236740067    2.860203729739   -0.002513310303
 C    2.449675232177    4.514544328568   -0.002468911372
 O    3.483368160245    3.845280494152   -0.003214577036
 C    2.368196440417    5.975091389958   -0.002968808819
 H    3.291596578719    6.552151648824   -0.003309485596
 H   -0.929980801065    6.314824810964   -0.002719506561
CS   -0.973353170354   -4.070713892106    0.002317857768
