13

 N   -0.027275665401    5.909422886088   -0.002551355923
 C    1.146463917682    6.636795077598   -0.002863835093
 H    1.028747057619    7.722113536642   -0.002979682652
 C   -0.073051638481    4.516211094221   -0.002936410492
 O   -1.124639807037    3.882107780380   -0.002593043388
 N    1.187388902660    3.932741038089   -0.002519507170
 H    1.197204699783    2.914455926223   -0.002546811265
 C    2.448643191893    4.568796525052   -0.002502412334
 O    3.482336119961    3.899532690636   -0.003248077998
 C    2.367164400133    6.029343586442   -0.003002309781
 H    3.290564538435    6.606403845308   -0.003342986558
 H   -0.931012841349    6.369077007448   -0.002753007523
CS   -0.972483253722   -4.116443587723    0.002346096049
