13

 N   -0.028307705685    5.963675082573   -0.002584856885
 C    1.145431877398    6.691047274083   -0.002897336055
 H    1.027715017335    7.776365733127   -0.003013183614
 C   -0.074083678765    4.570463290706   -0.002969911454
 O   -1.125671847321    3.936359976865   -0.002626544350
 N    1.186356862376    3.986993234574   -0.002553008132
 H    1.196172659499    2.968708122708   -0.002580312227
 C    2.447611151609    4.623048721537   -0.002535913296
 O    3.481304079677    3.953784887121   -0.003281578960
 C    2.366132359849    6.083595782927   -0.003035810743
 H    3.289532498151    6.660656041793   -0.003376487520
 H   -0.932044881633    6.423329203933   -0.002786508485
CS   -0.971613337090   -4.162173283339    0.002374334330
