13

 N   -0.036564027959    6.397692654453   -0.002852864579
 C    1.137175555124    7.125064845963   -0.003165343749
 H    1.019458695061    8.210383305007   -0.003281191308
 C   -0.082340001039    5.004480862586   -0.003237919148
 O   -1.133928169595    4.370377548745   -0.002894552044
 N    1.178100540102    4.421010806454   -0.002821015826
 H    1.187916337225    3.402725694588   -0.002848319921
 C    2.439354829335    5.057066293417   -0.002803920990
 O    3.473047757403    4.387802459001   -0.003549586654
 C    2.357876037575    6.517613354807   -0.003303818437
 H    3.281276175877    7.094673613673   -0.003644495214
 H   -0.940301203907    6.857346775813   -0.003054516179
CS   -0.964654004032   -4.528010848270    0.002600240580
