13

 N   -0.038628108527    6.506197047423   -0.002919866502
 C    1.135111474556    7.233569238933   -0.003232345672
 H    1.017394614493    8.318887697977   -0.003348193231
 C   -0.084404081607    5.112985255556   -0.003304921071
 O   -1.135992250163    4.478881941715   -0.002961553967
 N    1.176036459534    4.529515199424   -0.002888017749
 H    1.185852256657    3.511230087558   -0.002915321844
 C    2.437290748767    5.165570686387   -0.002870922913
 O    3.470983676835    4.496306851971   -0.003616588577
 C    2.355811957007    6.626117747777   -0.003370820360
 H    3.279212095309    7.203178006643   -0.003711497137
 H   -0.942365284475    6.965851168783   -0.003121518102
CS   -0.962914170767   -4.619470239502    0.002656717143
