13

 N   -0.039660148811    6.560449243908   -0.002953367464
 C    1.134079434272    7.287821435418   -0.003265846634
 H    1.016362574209    8.373139894462   -0.003381694193
 C   -0.085436121891    5.167237452041   -0.003338422033
 O   -1.137024290447    4.533134138200   -0.002995054929
 N    1.175004419250    4.583767395909   -0.002921518711
 H    1.184820216373    3.565482284043   -0.002948822806
 C    2.436258708483    5.219822882872   -0.002904423875
 O    3.469951636551    4.550559048456   -0.003650089539
 C    2.354779916723    6.680369944262   -0.003404321322
 H    3.278180055025    7.257430203128   -0.003744998099
 H   -0.943397324759    7.020103365268   -0.003155019064
CS   -0.962044254135   -4.665199935119    0.002684955424
