14

 P   -0.081847643788    0.077765006222   -0.175231771538
 O   -0.668847643788    1.127765006222    0.779768228462
 O   -0.347847643788    0.125765006222   -1.687231771538
 O    1.581152356212   -0.096234993778    0.111768228462
 O   -0.396847643788   -1.480234993778    0.416768228462
 C    2.318152356212    1.068765006222   -0.265231771538
 H    1.987152356212    1.951765006222    0.310768228462
 H    2.203152356212    1.279765006222   -1.343231771538
 H    3.378152356212    0.866765006222   -0.045231771538
 C   -1.787847643788   -1.803234993778    0.366768228462
 H   -2.165847643788   -1.776234993778   -0.671231771538
 H   -2.380847643788   -1.104234993778    0.982768228462
 H   -1.897847643788   -2.823234993778    0.766768228462
LI   -1.089243245215    1.879750323937    1.463716779336
