14

 P   -0.073723315536    0.063232562159   -0.188449375424
 O   -0.660723315536    1.113232562159    0.766550624576
 O   -0.339723315536    0.111232562159   -1.700449375424
 O    1.589276684464   -0.110767437841    0.098550624576
 O   -0.388723315536   -1.494767437841    0.403550624576
 C    2.326276684464    1.054232562159   -0.278449375424
 H    1.995276684464    1.937232562159    0.297550624576
 H    2.211276684464    1.265232562159   -1.356449375424
 H    3.386276684464    0.852232562159   -0.058449375424
 C   -1.779723315536   -1.817767437841    0.353550624576
 H   -2.157723315536   -1.790767437841   -0.684449375424
 H   -2.372723315536   -1.118767437841    0.969550624576
 H   -1.889723315536   -2.837767437841    0.753550624576
LI   -1.233990044755    2.138667086315    1.699207739404
