14

 P   -0.071692233473    0.059599451143   -0.191753776396
 O   -0.658692233473    1.109599451143    0.763246223604
 O   -0.337692233473    0.107599451143   -1.703753776396
 O    1.591307766527   -0.114400548857    0.095246223604
 O   -0.386692233473   -1.498400548857    0.400246223604
 C    2.328307766527    1.050599451143   -0.281753776396
 H    1.997307766527    1.933599451143    0.294246223604
 H    2.213307766527    1.261599451143   -1.359753776396
 H    3.388307766527    0.848599451143   -0.061753776396
 C   -1.777692233473   -1.821400548857    0.350246223604
 H   -2.155692233473   -1.794400548857   -0.687753776396
 H   -2.370692233473   -1.122400548857    0.966246223604
 H   -1.887692233473   -2.841400548857    0.750246223604
LI   -1.270176744639    2.203396276910    1.758080479421
