14

 P    0.098918659829   -0.245581874184   -0.469323458003
 O   -0.488081340171    0.804418125816    0.485676541997
 O   -0.167081340171   -0.197581874184   -1.981323458003
 O    1.761918659829   -0.419581874184   -0.182323458003
 O   -0.216081340171   -1.803581874184    0.122676541997
 C    2.498918659829    0.745418125816   -0.559323458003
 H    2.167918659829    1.628418125816    0.016676541997
 H    2.383918659829    0.956418125816   -1.637323458003
 H    3.558918659829    0.543418125816   -0.339323458003
 C   -1.607081340171   -2.126581874184    0.072676541997
 H   -1.985081340171   -2.099581874184   -0.965323458003
 H   -2.200081340171   -1.427581874184    0.688676541997
 H   -1.717081340171   -3.146581874184    0.472676541997
LI   -4.309859534963    7.640648286858    6.703390640850
