14

 P   -0.057474659031    0.034167674032   -0.214884583196
 O   -0.644474659031    1.084167674032    0.740115416804
 O   -0.323474659031    0.082167674032   -1.726884583196
 O    1.605525340969   -0.139832325968    0.072115416804
 O   -0.372474659031   -1.523832325968    0.377115416804
 C    2.342525340969    1.025167674032   -0.304884583196
 H    2.011525340969    1.908167674032    0.271115416804
 H    2.227525340969    1.236167674032   -1.382884583196
 H    3.402525340969    0.823167674032   -0.084884583196
 C   -1.763474659031   -1.846832325968    0.327115416804
 H   -2.141474659031   -1.819832325968   -0.710884583196
 H   -2.356474659031   -1.147832325968    0.943115416804
 H   -1.873474659031   -2.866832325968    0.727115416804
LI   -1.523483643833    2.656500611072    2.170189659540
