14

 P   -0.055443576968    0.030534563017   -0.218188984168
 O   -0.642443576968    1.080534563017    0.736811015832
 O   -0.321443576968    0.078534563017   -1.730188984168
 O    1.607556423032   -0.143465436983    0.068811015832
 O   -0.370443576968   -1.527465436983    0.373811015832
 C    2.344556423032    1.021534563017   -0.308188984168
 H    2.013556423032    1.904534563017    0.267811015832
 H    2.229556423032    1.232534563017   -1.386188984168
 H    3.404556423032    0.819534563017   -0.088188984168
 C   -1.761443576968   -1.850465436983    0.323811015832
 H   -2.139443576968   -1.823465436983   -0.714188984168
 H   -2.354443576968   -1.151465436983    0.939811015832
 H   -1.871443576968   -2.870465436983    0.723811015832
LI   -1.559670343718    2.721229801667    2.229062399557
