14

 P   -0.049350330778    0.019635229969   -0.228102187082
 O   -0.636350330778    1.069635229969    0.726897812918
 O   -0.315350330778    0.067635229969   -1.740102187082
 O    1.613649669222   -0.154364770031    0.058897812918
 O   -0.364350330778   -1.538364770031    0.363897812918
 C    2.350649669222    1.010635229969   -0.318102187082
 H    2.019649669222    1.893635229969    0.257897812918
 H    2.235649669222    1.221635229969   -1.396102187082
 H    3.410649669222    0.808635229969   -0.098102187082
 C   -1.755350330778   -1.861364770031    0.313897812918
 H   -2.133350330778   -1.834364770031   -0.724102187082
 H   -2.348350330778   -1.162364770031    0.929897812918
 H   -1.865350330778   -2.881364770031    0.713897812918
LI   -1.668230443372    2.915417373451    2.405680619608
