14

 P   -0.047319248715    0.016002118953   -0.231406588054
 O   -0.634319248715    1.066002118953    0.723593411946
 O   -0.313319248715    0.064002118953   -1.743406588054
 O    1.615680751285   -0.157997881047    0.055593411946
 O   -0.362319248715   -1.541997881047    0.360593411946
 C    2.352680751285    1.007002118953   -0.321406588054
 H    2.021680751285    1.890002118953    0.254593411946
 H    2.237680751285    1.218002118953   -1.399406588054
 H    3.412680751285    0.805002118953   -0.101406588054
 C   -1.753319248715   -1.864997881047    0.310593411946
 H   -2.131319248715   -1.837997881047   -0.727406588054
 H   -2.346319248715   -1.165997881047    0.926593411946
 H   -1.863319248715   -2.884997881047    0.710593411946
LI   -1.704417143257    2.980146564045    2.464553359625
