14

 P   -0.045288166652    0.012369007938   -0.234710989025
 O   -0.632288166652    1.062369007938    0.720289010975
 O   -0.311288166652    0.060369007938   -1.746710989025
 O    1.617711833348   -0.161630992062    0.052289010975
 O   -0.360288166652   -1.545630992062    0.357289010975
 C    2.354711833348    1.003369007938   -0.324710989025
 H    2.023711833348    1.886369007938    0.251289010975
 H    2.239711833348    1.214369007938   -1.402710989025
 H    3.414711833348    0.801369007938   -0.104710989025
 C   -1.751288166652   -1.868630992062    0.307289010975
 H   -2.129288166652   -1.841630992062   -0.730710989025
 H   -2.344288166652   -1.169630992062    0.923289010975
 H   -1.861288166652   -2.888630992062    0.707289010975
LI   -1.740603843142    3.044875754640    2.523426099642
