14

 P   -0.043257084589    0.008735896922   -0.238015389997
 O   -0.630257084589    1.058735896922    0.716984610003
 O   -0.309257084589    0.056735896922   -1.750015389997
 O    1.619742915411   -0.165264103078    0.048984610003
 O   -0.358257084589   -1.549264103078    0.353984610003
 C    2.356742915411    0.999735896922   -0.328015389997
 H    2.025742915411    1.882735896922    0.247984610003
 H    2.241742915411    1.210735896922   -1.406015389997
 H    3.416742915411    0.797735896922   -0.108015389997
 C   -1.749257084589   -1.872264103078    0.303984610003
 H   -2.127257084589   -1.845264103078   -0.734015389997
 H   -2.342257084589   -1.173264103078    0.919984610003
 H   -1.859257084589   -2.892264103078    0.703984610003
LI   -1.776790543027    3.109604945234    2.582298839659
