14

 P   -0.041226002526    0.005102785906   -0.241319790968
 O   -0.628226002526    1.055102785906    0.713680209032
 O   -0.307226002526    0.053102785906   -1.753319790968
 O    1.621773997474   -0.168897214094    0.045680209032
 O   -0.356226002526   -1.552897214094    0.350680209032
 C    2.358773997474    0.996102785906   -0.331319790968
 H    2.027773997474    1.879102785906    0.244680209032
 H    2.243773997474    1.207102785906   -1.409319790968
 H    3.418773997474    0.794102785906   -0.111319790968
 C   -1.747226002526   -1.875897214094    0.300680209032
 H   -2.125226002526   -1.848897214094   -0.737319790968
 H   -2.340226002526   -1.176897214094    0.916680209032
 H   -1.857226002526   -2.895897214094    0.700680209032
LI   -1.812977242912    3.174334135829    2.641171579676
