14

 P   -0.033101674274   -0.009429658157   -0.254537394854
 O   -0.620101674274    1.040570341843    0.700462605146
 O   -0.299101674274    0.038570341843   -1.766537394854
 O    1.629898325726   -0.183429658157    0.032462605146
 O   -0.348101674274   -1.567429658157    0.337462605146
 C    2.366898325726    0.981570341843   -0.344537394854
 H    2.035898325726    1.864570341843    0.231462605146
 H    2.251898325726    1.192570341843   -1.422537394854
 H    3.426898325726    0.779570341843   -0.124537394854
 C   -1.739101674274   -1.890429658157    0.287462605146
 H   -2.117101674274   -1.863429658157   -0.750537394854
 H   -2.332101674274   -1.191429658157    0.903462605146
 H   -1.849101674274   -2.910429658157    0.687462605146
LI   -1.957724042451    3.433250898208    2.876662539744
