14

 P   -0.022946263958   -0.027595213236   -0.271059399712
 O   -0.609946263958    1.022404786764    0.683940600288
 O   -0.288946263958    0.020404786764   -1.783059399712
 O    1.640053736042   -0.201595213236    0.015940600288
 O   -0.337946263958   -1.585595213236    0.320940600288
 C    2.377053736042    0.963404786764   -0.361059399712
 H    2.046053736042    1.846404786764    0.214940600288
 H    2.262053736042    1.174404786764   -1.439059399712
 H    3.437053736042    0.761404786764   -0.141059399712
 C   -1.728946263958   -1.908595213236    0.270940600288
 H   -2.106946263958   -1.881595213236   -0.767059399712
 H   -2.321946263958   -1.209595213236    0.886940600288
 H   -1.838946263958   -2.928595213236    0.670940600288
LI   -2.138657541875    3.756896851181    3.171026239829
