14

 P   -0.014821935705   -0.042127657299   -0.284277003598
 O   -0.601821935705    1.007872342701    0.670722996402
 O   -0.280821935705    0.005872342701   -1.796277003598
 O    1.648178064295   -0.216127657299    0.002722996402
 O   -0.329821935705   -1.600127657299    0.307722996402
 C    2.385178064295    0.948872342701   -0.374277003598
 H    2.054178064295    1.831872342701    0.201722996402
 H    2.270178064295    1.159872342701   -1.452277003598
 H    3.445178064295    0.746872342701   -0.154277003598
 C   -1.720821935705   -1.923127657299    0.257722996402
 H   -2.098821935705   -1.896127657299   -0.780277003598
 H   -2.313821935705   -1.224127657299    0.873722996402
 H   -1.830821935705   -2.943127657299    0.657722996402
LI   -2.283404341414    4.015813613559    3.406517199897
