14

 P   -0.010759771579   -0.049393879331   -0.290885805541
 O   -0.597759771579    1.000606120669    0.664114194459
 O   -0.276759771579   -0.001393879331   -1.802885805541
 O    1.652240228421   -0.223393879331   -0.003885805541
 O   -0.325759771579   -1.607393879331    0.301114194459
 C    2.389240228421    0.941606120669   -0.380885805541
 H    2.058240228421    1.824606120669    0.195114194459
 H    2.274240228421    1.152606120669   -1.458885805541
 H    3.449240228421    0.739606120669   -0.160885805541
 C   -1.716759771579   -1.930393879331    0.251114194459
 H   -2.094759771579   -1.903393879331   -0.786885805541
 H   -2.309759771579   -1.231393879331    0.867114194459
 H   -1.826759771579   -2.950393879331    0.651114194459
LI   -2.355777741184    4.145271994748    3.524262679931
