14

 P   -0.008728689516   -0.053026990347   -0.294190206512
 O   -0.595728689516    0.996973009653    0.660809793488
 O   -0.274728689516   -0.005026990347   -1.806190206512
 O    1.654271310484   -0.227026990347   -0.007190206512
 O   -0.323728689516   -1.611026990347    0.297809793488
 C    2.391271310484    0.937973009653   -0.384190206512
 H    2.060271310484    1.820973009653    0.191809793488
 H    2.276271310484    1.148973009653   -1.462190206512
 H    3.451271310484    0.735973009653   -0.164190206512
 C   -1.714728689516   -1.934026990347    0.247809793488
 H   -2.092728689516   -1.907026990347   -0.790190206512
 H   -2.307728689516   -1.235026990347    0.863809793488
 H   -1.824728689516   -2.954026990347    0.647809793488
LI   -2.391964441068    4.210001185343    3.583135419948
