14

 P   -0.006697607453   -0.056660101363   -0.297494607484
 O   -0.593697607453    0.993339898637    0.657505392516
 O   -0.272697607453   -0.008660101363   -1.809494607484
 O    1.656302392547   -0.230660101363   -0.010494607484
 O   -0.321697607453   -1.614660101363    0.294505392516
 C    2.393302392547    0.934339898637   -0.387494607484
 H    2.062302392547    1.817339898637    0.188505392516
 H    2.278302392547    1.145339898637   -1.465494607484
 H    3.453302392547    0.732339898637   -0.167494607484
 C   -1.712697607453   -1.937660101363    0.244505392516
 H   -2.090697607453   -1.910660101363   -0.793494607484
 H   -2.305697607453   -1.238660101363    0.860505392516
 H   -1.822697607453   -2.957660101363    0.644505392516
LI   -2.428151140953    4.274730375938    3.642008159965
