14

 P   -0.002635443327   -0.063926323394   -0.304103409427
 O   -0.589635443327    0.986073676606    0.650896590573
 O   -0.268635443327   -0.015926323394   -1.816103409427
 O    1.660364556673   -0.237926323394   -0.017103409427
 O   -0.317635443327   -1.621926323394    0.287896590573
 C    2.397364556673    0.927073676606   -0.394103409427
 H    2.066364556673    1.810073676606    0.181896590573
 H    2.282364556673    1.138073676606   -1.472103409427
 H    3.457364556673    0.725073676606   -0.174103409427
 C   -1.708635443327   -1.944926323394    0.237896590573
 H   -2.086635443327   -1.917926323394   -0.800103409427
 H   -2.301635443327   -1.245926323394    0.853896590573
 H   -1.818635443327   -2.964926323394    0.637896590573
LI   -2.500524540723    4.404188757127    3.759753639999
