14

 P    0.001426720799   -0.071192545426   -0.310712211370
 O   -0.585573279201    0.978807454574    0.644287788630
 O   -0.264573279201   -0.023192545426   -1.822712211370
 O    1.664426720799   -0.245192545426   -0.023712211370
 O   -0.313573279201   -1.629192545426    0.281287788630
 C    2.401426720799    0.919807454574   -0.400712211370
 H    2.070426720799    1.802807454574    0.175287788630
 H    2.286426720799    1.130807454574   -1.478712211370
 H    3.461426720799    0.717807454574   -0.180712211370
 C   -1.704573279201   -1.952192545426    0.231287788630
 H   -2.082573279201   -1.925192545426   -0.806712211370
 H   -2.297573279201   -1.253192545426    0.847287788630
 H   -1.814573279201   -2.972192545426    0.631287788630
LI   -2.572897940492    4.533647138316    3.877499120033
