14

 P    0.009551049052   -0.085724989489   -0.323929815256
 O   -0.577448950948    0.964275010511    0.631070184744
 O   -0.256448950948   -0.037724989489   -1.835929815256
 O    1.672551049052   -0.259724989489   -0.036929815256
 O   -0.305448950948   -1.643724989489    0.268070184744
 C    2.409551049052    0.905275010511   -0.413929815256
 H    2.078551049052    1.788275010511    0.162070184744
 H    2.294551049052    1.116275010511   -1.491929815256
 H    3.469551049052    0.703275010511   -0.193929815256
 C   -1.696448950948   -1.966724989489    0.218070184744
 H   -2.074448950948   -1.939724989489   -0.819929815256
 H   -2.289448950948   -1.267724989489    0.834070184744
 H   -1.806448950948   -2.986724989489    0.618070184744
LI   -2.717644740032    4.792563900695    4.112990080101
