14

 P    0.011582131115   -0.089358100505   -0.327234216228
 O   -0.575417868885    0.960641899495    0.627765783772
 O   -0.254417868885   -0.041358100505   -1.839234216228
 O    1.674582131115   -0.263358100505   -0.040234216228
 O   -0.303417868885   -1.647358100505    0.264765783772
 C    2.411582131115    0.901641899495   -0.417234216228
 H    2.080582131115    1.784641899495    0.158765783772
 H    2.296582131115    1.112641899495   -1.495234216228
 H    3.471582131115    0.699641899495   -0.197234216228
 C   -1.694417868885   -1.970358100505    0.214765783772
 H   -2.072417868885   -1.943358100505   -0.823234216228
 H   -2.287417868885   -1.271358100505    0.830765783772
 H   -1.804417868885   -2.990358100505    0.614765783772
LI   -2.753831439916    4.857293091289    4.171862820118
