14

 P    0.013613213178   -0.092991211521   -0.330538617199
 O   -0.573386786822    0.957008788479    0.624461382801
 O   -0.252386786822   -0.044991211521   -1.842538617199
 O    1.676613213178   -0.266991211521   -0.043538617199
 O   -0.301386786822   -1.650991211521    0.261461382801
 C    2.413613213178    0.898008788479   -0.420538617199
 H    2.082613213178    1.781008788479    0.155461382801
 H    2.298613213178    1.109008788479   -1.498538617199
 H    3.473613213178    0.696008788479   -0.200538617199
 C   -1.692386786822   -1.973991211521    0.211461382801
 H   -2.070386786822   -1.946991211521   -0.826538617199
 H   -2.285386786822   -1.274991211521    0.827461382801
 H   -1.802386786822   -2.993991211521    0.611461382801
LI   -2.790018139801    4.922022281884    4.230735560135
