14

 P    0.017675377304   -0.100257433552   -0.337147419142
 O   -0.569324622696    0.949742566448    0.617852580858
 O   -0.248324622696   -0.052257433552   -1.849147419142
 O    1.680675377304   -0.274257433552   -0.050147419142
 O   -0.297324622696   -1.658257433552    0.254852580858
 C    2.417675377304    0.890742566448   -0.427147419142
 H    2.086675377304    1.773742566448    0.148852580858
 H    2.302675377304    1.101742566448   -1.505147419142
 H    3.477675377304    0.688742566448   -0.207147419142
 C   -1.688324622696   -1.981257433552    0.204852580858
 H   -2.066324622696   -1.954257433552   -0.833147419142
 H   -2.281324622696   -1.282257433552    0.820852580858
 H   -1.798324622696   -3.001257433552    0.604852580858
LI   -2.862391539571    5.051480663073    4.348481040169
