14

 P    0.021737541431   -0.107523655584   -0.343756221085
 O   -0.565262458569    0.942476344416    0.611243778915
 O   -0.244262458569   -0.059523655584   -1.855756221085
 O    1.684737541431   -0.281523655584   -0.056756221085
 O   -0.293262458569   -1.665523655584    0.248243778915
 C    2.421737541431    0.883476344416   -0.433756221085
 H    2.090737541431    1.766476344416    0.142243778915
 H    2.306737541431    1.094476344416   -1.511756221085
 H    3.481737541431    0.681476344416   -0.213756221085
 C   -1.684262458569   -1.988523655584    0.198243778915
 H   -2.062262458569   -1.961523655584   -0.839756221085
 H   -2.277262458569   -1.289523655584    0.814243778915
 H   -1.794262458569   -3.008523655584    0.598243778915
LI   -2.934764939340    5.180939044262    4.466226520203
