14

 P    0.023768623494   -0.111156766600   -0.347060622057
 O   -0.563231376506    0.938843233400    0.607939377943
 O   -0.242231376506   -0.063156766600   -1.859060622057
 O    1.686768623494   -0.285156766600   -0.060060622057
 O   -0.291231376506   -1.669156766600    0.244939377943
 C    2.423768623494    0.879843233400   -0.437060622057
 H    2.092768623494    1.762843233400    0.138939377943
 H    2.308768623494    1.090843233400   -1.515060622057
 H    3.483768623494    0.677843233400   -0.217060622057
 C   -1.682231376506   -1.992156766600    0.194939377943
 H   -2.060231376506   -1.965156766600   -0.843060622057
 H   -2.275231376506   -1.293156766600    0.810939377943
 H   -1.792231376506   -3.012156766600    0.594939377943
LI   -2.970951639225    5.245668234857    4.525099260220
