14

 P    0.025799705557   -0.114789877615   -0.350365023028
 O   -0.561200294443    0.935210122385    0.604634976972
 O   -0.240200294443   -0.066789877615   -1.862365023028
 O    1.688799705557   -0.288789877615   -0.063365023028
 O   -0.289200294443   -1.672789877615    0.241634976972
 C    2.425799705557    0.876210122385   -0.440365023028
 H    2.094799705557    1.759210122385    0.135634976972
 H    2.310799705557    1.087210122385   -1.518365023028
 H    3.485799705557    0.674210122385   -0.220365023028
 C   -1.680200294443   -1.995789877615    0.191634976972
 H   -2.058200294443   -1.968789877615   -0.846365023028
 H   -2.273200294443   -1.296789877615    0.807634976972
 H   -1.790200294443   -3.015789877615    0.591634976972
LI   -3.007138339110    5.310397425452    4.583972000237
