14

 P    0.029861869683   -0.122056099647   -0.356973824971
 O   -0.557138130317    0.927943900353    0.598026175029
 O   -0.236138130317   -0.074056099647   -1.868973824971
 O    1.692861869683   -0.296056099647   -0.069973824971
 O   -0.285138130317   -1.680056099647    0.235026175029
 C    2.429861869683    0.868943900353   -0.446973824971
 H    2.098861869683    1.751943900353    0.129026175029
 H    2.314861869683    1.079943900353   -1.524973824971
 H    3.489861869683    0.666943900353   -0.226973824971
 C   -1.676138130317   -2.003056099647    0.185026175029
 H   -2.054138130317   -1.976056099647   -0.852973824971
 H   -2.269138130317   -1.304056099647    0.801026175029
 H   -1.786138130317   -3.023056099647    0.585026175029
LI   -3.079511738880    5.439855806641    4.701717480272
