14

 P    0.031892951746   -0.125689210663   -0.360278225943
 O   -0.555107048254    0.924310789337    0.594721774057
 O   -0.234107048254   -0.077689210663   -1.872278225943
 O    1.694892951746   -0.299689210663   -0.073278225943
 O   -0.283107048254   -1.683689210663    0.231721774057
 C    2.431892951746    0.865310789337   -0.450278225943
 H    2.100892951746    1.748310789337    0.125721774057
 H    2.316892951746    1.076310789337   -1.528278225943
 H    3.491892951746    0.663310789337   -0.230278225943
 C   -1.674107048254   -2.006689210663    0.181721774057
 H   -2.052107048254   -1.979689210663   -0.856278225943
 H   -2.267107048254   -1.307689210663    0.797721774057
 H   -1.784107048254   -3.026689210663    0.581721774057
LI   -3.115698438764    5.504584997235    4.760590220289
