14

 P    0.035955115872   -0.132955432694   -0.366887027886
 O   -0.551044884128    0.917044567306    0.588112972114
 O   -0.230044884128   -0.084955432694   -1.878887027886
 O    1.698955115872   -0.306955432694   -0.079887027886
 O   -0.279044884128   -1.690955432694    0.225112972114
 C    2.435955115872    0.858044567306   -0.456887027886
 H    2.104955115872    1.741044567306    0.119112972114
 H    2.320955115872    1.069044567306   -1.534887027886
 H    3.495955115872    0.656044567306   -0.236887027886
 C   -1.670044884128   -2.013955432694    0.175112972114
 H   -2.048044884128   -1.986955432694   -0.862887027886
 H   -2.263044884128   -1.314955432694    0.791112972114
 H   -1.780044884128   -3.033955432694    0.575112972114
LI   -3.188071838534    5.634043378425    4.878335700323
