14

 P    0.040017279999   -0.140221654726   -0.373495829829
 O   -0.546982720001    0.909778345274    0.581504170171
 O   -0.225982720001   -0.092221654726   -1.885495829829
 O    1.703017279999   -0.314221654726   -0.086495829829
 O   -0.274982720001   -1.698221654726    0.218504170171
 C    2.440017279999    0.850778345274   -0.463495829829
 H    2.109017279999    1.733778345274    0.112504170171
 H    2.325017279999    1.061778345274   -1.541495829829
 H    3.500017279999    0.648778345274   -0.243495829829
 C   -1.665982720001   -2.021221654726    0.168504170171
 H   -2.043982720001   -1.994221654726   -0.869495829829
 H   -2.258982720001   -1.322221654726    0.784504170171
 H   -1.775982720001   -3.041221654726    0.568504170171
LI   -3.260445238304    5.763501759614    4.996081180357
