14

 P    0.046110526188   -0.151120987773   -0.383409032743
 O   -0.540889473812    0.898879012227    0.571590967257
 O   -0.219889473812   -0.103120987773   -1.895409032743
 O    1.709110526188   -0.325120987773   -0.096409032743
 O   -0.268889473812   -1.709120987773    0.208590967257
 C    2.446110526188    0.839879012227   -0.473409032743
 H    2.115110526188    1.722879012227    0.102590967257
 H    2.331110526188    1.050879012227   -1.551409032743
 H    3.506110526188    0.637879012227   -0.253409032743
 C   -1.659889473812   -2.032120987773    0.158590967257
 H   -2.037889473812   -2.005120987773   -0.879409032743
 H   -2.252889473812   -1.333120987773    0.774590967257
 H   -1.769889473812   -3.052120987773    0.558590967257
LI   -3.369005337958    5.957689331398    5.172699400408
