14

 P    0.048141608251   -0.154754098789   -0.386713433715
 O   -0.538858391749    0.895245901211    0.568286566285
 O   -0.217858391749   -0.106754098789   -1.898713433715
 O    1.711141608251   -0.328754098789   -0.099713433715
 O   -0.266858391749   -1.712754098789    0.205286566285
 C    2.448141608251    0.836245901211   -0.476713433715
 H    2.117141608251    1.719245901211    0.099286566285
 H    2.333141608251    1.047245901211   -1.554713433715
 H    3.508141608251    0.634245901211   -0.256713433715
 C   -1.657858391749   -2.035754098789    0.155286566285
 H   -2.035858391749   -2.008754098789   -0.882713433715
 H   -2.250858391749   -1.336754098789    0.771286566285
 H   -1.767858391749   -3.055754098789    0.555286566285
LI   -3.405192037843    6.022418521992    5.231572140425
