14

 P    0.050172690314   -0.158387209805   -0.390017834686
 O   -0.536827309686    0.891612790195    0.564982165314
 O   -0.215827309686   -0.110387209805   -1.902017834686
 O    1.713172690314   -0.332387209805   -0.103017834686
 O   -0.264827309686   -1.716387209805    0.201982165314
 C    2.450172690314    0.832612790195   -0.480017834686
 H    2.119172690314    1.715612790195    0.095982165314
 H    2.335172690314    1.043612790195   -1.558017834686
 H    3.510172690314    0.630612790195   -0.260017834686
 C   -1.655827309686   -2.039387209805    0.151982165314
 H   -2.033827309686   -2.012387209805   -0.886017834686
 H   -2.248827309686   -1.340387209805    0.767982165314
 H   -1.765827309686   -3.059387209805    0.551982165314
LI   -3.441378737728    6.087147712587    5.290444880442
