14

 P    0.054234854441   -0.165653431837   -0.396626636629
 O   -0.532765145559    0.884346568163    0.558373363371
 O   -0.211765145559   -0.117653431837   -1.908626636629
 O    1.717234854441   -0.339653431837   -0.109626636629
 O   -0.260765145559   -1.723653431837    0.195373363371
 C    2.454234854441    0.825346568163   -0.486626636629
 H    2.123234854441    1.708346568163    0.089373363371
 H    2.339234854441    1.036346568163   -1.564626636629
 H    3.514234854441    0.623346568163   -0.266626636629
 C   -1.651765145559   -2.046653431837    0.145373363371
 H   -2.029765145559   -2.019653431837   -0.892626636629
 H   -2.244765145559   -1.347653431837    0.761373363371
 H   -1.761765145559   -3.066653431837    0.545373363371
LI   -3.513752137497    6.216606093776    5.408190360476
