14

 P    0.056265936504   -0.169286542852   -0.399931037601
 O   -0.530734063496    0.880713457148    0.555068962399
 O   -0.209734063496   -0.121286542852   -1.911931037601
 O    1.719265936504   -0.343286542852   -0.112931037601
 O   -0.258734063496   -1.727286542852    0.192068962399
 C    2.456265936504    0.821713457148   -0.489931037601
 H    2.125265936504    1.704713457148    0.086068962399
 H    2.341265936504    1.032713457148   -1.567931037601
 H    3.516265936504    0.619713457148   -0.269931037601
 C   -1.649734063496   -2.050286542852    0.142068962399
 H   -2.027734063496   -2.023286542852   -0.895931037601
 H   -2.242734063496   -1.351286542852    0.758068962399
 H   -1.759734063496   -3.070286542852    0.542068962399
LI   -3.549938837382    6.281335284371    5.467063100493
