14

 P    0.058297018567   -0.172919653868   -0.403235438572
 O   -0.528702981433    0.877080346132    0.551764561428
 O   -0.207702981433   -0.124919653868   -1.915235438572
 O    1.721297018567   -0.346919653868   -0.116235438572
 O   -0.256702981433   -1.730919653868    0.188764561428
 C    2.458297018567    0.818080346132   -0.493235438572
 H    2.127297018567    1.701080346132    0.082764561428
 H    2.343297018567    1.029080346132   -1.571235438572
 H    3.518297018567    0.616080346132   -0.273235438572
 C   -1.647702981433   -2.053919653868    0.138764561428
 H   -2.025702981433   -2.026919653868   -0.899235438572
 H   -2.240702981433   -1.354919653868    0.754764561428
 H   -1.757702981433   -3.073919653868    0.538764561428
LI   -3.586125537267    6.346064474966    5.525935840510
