14

 P    0.066421346819   -0.187452097931   -0.416453042458
 O   -0.520578653181    0.862547902069    0.538546957542
 O   -0.199578653181   -0.139452097931   -1.928453042458
 O    1.729421346819   -0.361452097931   -0.129453042458
 O   -0.248578653181   -1.745452097931    0.175546957542
 C    2.466421346819    0.803547902069   -0.506453042458
 H    2.135421346819    1.686547902069    0.069546957542
 H    2.351421346819    1.014547902069   -1.584453042458
 H    3.526421346819    0.601547902069   -0.286453042458
 C   -1.639578653181   -2.068452097931    0.125546957542
 H   -2.017578653181   -2.041452097931   -0.912453042458
 H   -2.232578653181   -1.369452097931    0.741546957542
 H   -1.749578653181   -3.088452097931    0.525546957542
LI   -3.730872336806    6.604981237344    5.761426800578
