14

 P    0.070483510945   -0.194718319963   -0.423061844401
 O   -0.516516489055    0.855281680037    0.531938155599
 O   -0.195516489055   -0.146718319963   -1.935061844401
 O    1.733483510945   -0.368718319963   -0.136061844401
 O   -0.244516489055   -1.752718319963    0.168938155599
 C    2.470483510945    0.796281680037   -0.513061844401
 H    2.139483510945    1.679281680037    0.062938155599
 H    2.355483510945    1.007281680037   -1.591061844401
 H    3.530483510945    0.594281680037   -0.293061844401
 C   -1.635516489055   -2.075718319963    0.118938155599
 H   -2.013516489055   -2.048718319963   -0.919061844401
 H   -2.228516489055   -1.376718319963    0.734938155599
 H   -1.745516489055   -3.095718319963    0.518938155599
LI   -3.803245736576    6.734439618533    5.879172280612
