14

 P    0.072514593009   -0.198351430979   -0.426366245373
 O   -0.514485406991    0.851648569021    0.528633754627
 O   -0.193485406991   -0.150351430979   -1.938366245373
 O    1.735514593009   -0.372351430979   -0.139366245373
 O   -0.242485406991   -1.756351430979    0.165633754627
 C    2.472514593009    0.792648569021   -0.516366245373
 H    2.141514593009    1.675648569021    0.059633754627
 H    2.357514593009    1.003648569021   -1.594366245373
 H    3.532514593009    0.590648569021   -0.296366245373
 C   -1.633485406991   -2.079351430979    0.115633754627
 H   -2.011485406991   -2.052351430979   -0.922366245373
 H   -2.226485406991   -1.380351430979    0.731633754627
 H   -1.743485406991   -3.099351430979    0.515633754627
LI   -3.839432436461    6.799168809128    5.938045020629
