14

 P    0.078607839198   -0.209250764026   -0.436279448287
 O   -0.508392160802    0.840749235974    0.518720551713
 O   -0.187392160802   -0.161250764026   -1.948279448287
 O    1.741607839198   -0.383250764026   -0.149279448287
 O   -0.236392160802   -1.767250764026    0.155720551713
 C    2.478607839198    0.781749235974   -0.526279448287
 H    2.147607839198    1.664749235974    0.049720551713
 H    2.363607839198    0.992749235974   -1.604279448287
 H    3.538607839198    0.579749235974   -0.306279448287
 C   -1.627392160802   -2.090250764026    0.105720551713
 H   -2.005392160802   -2.063250764026   -0.932279448287
 H   -2.220392160802   -1.391250764026    0.721720551713
 H   -1.737392160802   -3.110250764026    0.505720551713
LI   -3.947992536115    6.993356380912    6.114663240680
