14

 P    0.088763249514   -0.227416319105   -0.452801453145
 O   -0.498236750486    0.822583680895    0.502198546855
 O   -0.177236750486   -0.179416319105   -1.964801453145
 O    1.751763249514   -0.401416319105   -0.165801453145
 O   -0.226236750486   -1.785416319105    0.139198546855
 C    2.488763249514    0.763583680895   -0.542801453145
 H    2.157763249514    1.646583680895    0.033198546855
 H    2.373763249514    0.974583680895   -1.620801453145
 H    3.548763249514    0.561583680895   -0.322801453145
 C   -1.617236750486   -2.108416319105    0.089198546855
 H   -1.995236750486   -2.081416319105   -0.948801453145
 H   -2.210236750486   -1.409416319105    0.705198546855
 H   -1.727236750486   -3.128416319105    0.489198546855
LI   -4.128926035539    7.317002333885    6.409026940765
