14

 P    0.090794331577   -0.231049430121   -0.456105854117
 O   -0.496205668423    0.818950569879    0.498894145883
 O   -0.175205668423   -0.183049430121   -1.968105854117
 O    1.753794331577   -0.405049430121   -0.169105854117
 O   -0.224205668423   -1.789049430121    0.135894145883
 C    2.490794331577    0.759950569879   -0.546105854117
 H    2.159794331577    1.642950569879    0.029894145883
 H    2.375794331577    0.970950569879   -1.624105854117
 H    3.550794331577    0.557950569879   -0.326105854117
 C   -1.615205668423   -2.112049430121    0.085894145883
 H   -1.993205668423   -2.085049430121   -0.952105854117
 H   -2.208205668423   -1.413049430121    0.701894145883
 H   -1.725205668423   -3.132049430121    0.485894145883
LI   -4.165112735424    7.381731524480    6.467899680782
