14

 P    0.094856495703   -0.238315652152   -0.462714656060
 O   -0.492143504297    0.811684347848    0.492285343940
 O   -0.171143504297   -0.190315652152   -1.974714656060
 O    1.757856495703   -0.412315652152   -0.175714656060
 O   -0.220143504297   -1.796315652152    0.129285343940
 C    2.494856495703    0.752684347848   -0.552714656060
 H    2.163856495703    1.635684347848    0.023285343940
 H    2.379856495703    0.963684347848   -1.630714656060
 H    3.554856495703    0.550684347848   -0.332714656060
 C   -1.611143504297   -2.119315652152    0.079285343940
 H   -1.989143504297   -2.092315652152   -0.958714656060
 H   -2.204143504297   -1.420315652152    0.695285343940
 H   -1.721143504297   -3.139315652152    0.479285343940
LI   -4.237486135193    7.511189905669    6.585645160816
