14

 P    0.096887577766   -0.241948763168   -0.466019057031
 O   -0.490112422234    0.808051236832    0.488980942969
 O   -0.169112422234   -0.193948763168   -1.978019057031
 O    1.759887577766   -0.415948763168   -0.179019057031
 O   -0.218112422234   -1.799948763168    0.125980942969
 C    2.496887577766    0.749051236832   -0.556019057031
 H    2.165887577766    1.632051236832    0.019980942969
 H    2.381887577766    0.960051236832   -1.634019057031
 H    3.556887577766    0.547051236832   -0.336019057031
 C   -1.609112422234   -2.122948763168    0.075980942969
 H   -1.987112422234   -2.095948763168   -0.962019057031
 H   -2.202112422234   -1.423948763168    0.691980942969
 H   -1.719112422234   -3.142948763168    0.475980942969
LI   -4.273672835078    7.575919096263    6.644517900833
