10

 H   -1.570392813372   -1.764876038491   -1.304226439946
 H   -0.668916813372   -0.562662038491   -2.279473439946
 H    0.232559186628   -1.764876038491   -1.304226439946
 C   -0.668916813372   -1.134027038491   -1.339754439946
 S   -0.668916813372    0.063847961509    0.032783560054
 C   -0.668916813372   -1.134027038491    1.405321560054
 H    0.232559186628   -1.764876038491    1.369793560054
 H   -0.668916813372   -0.562662038491    2.345040560054
 H   -1.570392813372   -1.764876038491    1.369793560054
CS    0.312143448818    0.251488344809   -0.015298125709
