10

 H   -1.704176176047   -1.790463825928   -1.297669727935
 H   -0.802700176047   -0.588249825928   -2.272916727935
 H    0.098775823953   -1.790463825928   -1.297669727935
 C   -0.802700176047   -1.159614825928   -1.333197727935
 S   -0.802700176047    0.038260174072    0.039340272065
 C   -0.802700176047   -1.159614825928    1.411878272065
 H    0.098775823953   -1.790463825928    1.376350272065
 H   -0.802700176047   -0.588249825928    2.351597272065
 H   -1.704176176047   -1.790463825928    1.376350272065
CS    0.374572138582    0.263428634032   -0.018357750851
