10

 H   -1.904851220059   -1.828845507083   -1.287834659919
 H   -1.003375220059   -0.626631507083   -2.263081659919
 H   -0.101899220059   -1.828845507083   -1.287834659919
 C   -1.003375220059   -1.197996507083   -1.323362659919
 S   -1.003375220059   -0.000121507083    0.049175340081
 C   -1.003375220059   -1.197996507083    1.421713340081
 H   -0.101899220059   -1.828845507083    1.386185340081
 H   -1.003375220059   -0.626631507083    2.361432340081
 H   -1.904851220059   -1.828845507083    1.386185340081
CS    0.468215173227    0.281339067867   -0.022947188563
