10

 H   -1.971742901396   -1.841639400801   -1.284556303913
 H   -1.070266901396   -0.639425400801   -2.259803303913
 H   -0.168790901396   -1.841639400801   -1.284556303913
 C   -1.070266901396   -1.210790400801   -1.320084303913
 S   -1.070266901396   -0.012915400801    0.052453696087
 C   -1.070266901396   -1.210790400801    1.424991696087
 H   -0.168790901396   -1.841639400801    1.389463696087
 H   -1.070266901396   -0.639425400801    2.364710696087
 H   -1.971742901396   -1.841639400801    1.389463696087
CS    0.499429518109    0.287309212479   -0.024477001134
