10

 H   -2.038634582733   -1.854433294520   -1.281277947908
 H   -1.137158582733   -0.652219294520   -2.256524947908
 H   -0.235682582733   -1.854433294520   -1.281277947908
 C   -1.137158582733   -1.223584294520   -1.316805947908
 S   -1.137158582733   -0.025709294520    0.055732052092
 C   -1.137158582733   -1.223584294520    1.428270052092
 H   -0.235682582733   -1.854433294520    1.392742052092
 H   -1.137158582733   -0.652219294520    2.367989052092
 H   -2.038634582733   -1.854433294520    1.392742052092
CS    0.530643862991    0.293279357091   -0.026006813705
