10

 H   -2.172417945408   -1.880021081956   -1.274721235897
 H   -1.270941945408   -0.677807081956   -2.249968235897
 H   -0.369465945408   -1.880021081956   -1.274721235897
 C   -1.270941945408   -1.249172081956   -1.310249235897
 S   -1.270941945408   -0.051297081956    0.062288764103
 C   -1.270941945408   -1.249172081956    1.434826764103
 H   -0.369465945408   -1.880021081956    1.399298764103
 H   -1.270941945408   -0.677807081956    2.374545764103
 H   -2.172417945408   -1.880021081956    1.399298764103
CS    0.593072552754    0.305219646314   -0.029066438847
