10

 H   -2.640659714768   -1.969578337984   -1.251772743859
 H   -1.739183714768   -0.767364337984   -2.227019743859
 H   -0.837707714768   -1.969578337984   -1.251772743859
 C   -1.739183714768   -1.338729337984   -1.287300743859
 S   -1.739183714768   -0.140854337984    0.085237256141
 C   -1.739183714768   -1.338729337984    1.457775256141
 H   -0.837707714768   -1.969578337984    1.422247256141
 H   -1.739183714768   -0.767364337984    2.397494256141
 H   -2.640659714768   -1.969578337984    1.422247256141
CS    0.811572966927    0.347010658596   -0.039775126843
