10

 H   -2.707551396106   -1.982372231703   -1.248494387854
 H   -1.806075396106   -0.780158231703   -2.223741387854
 H   -0.904599396106   -1.982372231703   -1.248494387854
 C   -1.806075396106   -1.351523231703   -1.284022387854
 S   -1.806075396106   -0.153648231703    0.088515612146
 C   -1.806075396106   -1.351523231703    1.461053612146
 H   -0.904599396106   -1.982372231703    1.425525612146
 H   -1.806075396106   -0.780158231703    2.400772612146
 H   -2.707551396106   -1.982372231703    1.425525612146
CS    0.842787311808    0.352980803208   -0.041304939414
