10

 H   -2.774443077443   -1.995166125421   -1.245216031848
 H   -1.872967077443   -0.792952125421   -2.220463031848
 H   -0.971491077443   -1.995166125421   -1.245216031848
 C   -1.872967077443   -1.364317125421   -1.280744031848
 S   -1.872967077443   -0.166442125421    0.091793968152
 C   -1.872967077443   -1.364317125421    1.464331968152
 H   -0.971491077443   -1.995166125421    1.428803968152
 H   -1.872967077443   -0.792952125421    2.404050968152
 H   -2.774443077443   -1.995166125421    1.428803968152
CS    0.874001656690    0.358950947820   -0.042834751985
