10

 H   -2.908226440117   -2.020753912858   -1.238659319838
 H   -2.006750440117   -0.818539912858   -2.213906319838
 H   -1.105274440117   -2.020753912858   -1.238659319838
 C   -2.006750440117   -1.389904912858   -1.274187319838
 S   -2.006750440117   -0.192029912858    0.098350680162
 C   -2.006750440117   -1.389904912858    1.470888680162
 H   -1.105274440117   -2.020753912858    1.435360680162
 H   -2.006750440117   -0.818539912858    2.410607680162
 H   -2.908226440117   -2.020753912858    1.435360680162
CS    0.936430346454    0.370891237043   -0.045894377127
