10

 H   -2.975118121455   -2.033547806576   -1.235380963832
 H   -2.073642121455   -0.831333806576   -2.210627963832
 H   -1.172166121455   -2.033547806576   -1.235380963832
 C   -2.073642121455   -1.402698806576   -1.270908963832
 S   -2.073642121455   -0.204823806576    0.101629036168
 C   -2.073642121455   -1.402698806576    1.474167036168
 H   -1.172166121455   -2.033547806576    1.438639036168
 H   -2.073642121455   -0.831333806576    2.413886036168
 H   -2.975118121455   -2.033547806576    1.438639036168
CS    0.967644691336    0.376861381655   -0.047424189698
