10

 H   -3.042009802792   -2.046341700294   -1.232102607827
 H   -2.140533802792   -0.844127700294   -2.207349607827
 H   -1.239057802792   -2.046341700294   -1.232102607827
 C   -2.140533802792   -1.415492700294   -1.267630607827
 S   -2.140533802792   -0.217617700294    0.104907392173
 C   -2.140533802792   -1.415492700294    1.477445392173
 H   -1.239057802792   -2.046341700294    1.441917392173
 H   -2.140533802792   -0.844127700294    2.417164392173
 H   -3.042009802792   -2.046341700294    1.441917392173
CS    0.998859036217    0.382831526267   -0.048954002269
