10

 H   -3.309576528141   -2.097517275167   -1.218989183805
 H   -2.408100528141   -0.895303275167   -2.194236183805
 H   -1.506624528141   -2.097517275167   -1.218989183805
 C   -2.408100528141   -1.466668275167   -1.254517183805
 S   -2.408100528141   -0.268793275167    0.118020816195
 C   -2.408100528141   -1.466668275167    1.490558816195
 H   -1.506624528141   -2.097517275167    1.455030816195
 H   -2.408100528141   -0.895303275167    2.430277816195
 H   -3.309576528141   -2.097517275167    1.455030816195
CS    1.123716415745    0.406712104714   -0.055073252552
