10

 H   -3.577143253490   -2.148692850041   -1.205875759783
 H   -2.675667253490   -0.946478850041   -2.181122759783
 H   -1.774191253490   -2.148692850041   -1.205875759783
 C   -2.675667253490   -1.517843850041   -1.241403759783
 S   -2.675667253490   -0.319968850041    0.131134240217
 C   -2.675667253490   -1.517843850041    1.503672240217
 H   -1.774191253490   -2.148692850041    1.468144240217
 H   -2.675667253490   -0.946478850041    2.443391240217
 H   -3.577143253490   -2.148692850041    1.468144240217
CS    1.248573795272    0.430592683160   -0.061192502836
