10

 H   -3.911601660176   -2.212662318632   -1.189483979756
 H   -3.010125660176   -1.010448318632   -2.164730979756
 H   -2.108649660176   -2.212662318632   -1.189483979756
 C   -3.010125660176   -1.581813318632   -1.225011979756
 S   -3.010125660176   -0.383938318632    0.147526020244
 C   -3.010125660176   -1.581813318632    1.520064020244
 H   -2.108649660176   -2.212662318632    1.484536020244
 H   -3.010125660176   -1.010448318632    2.459783020244
 H   -3.911601660176   -2.212662318632    1.484536020244
CS    1.404645519681    0.460443406219   -0.068841565690
