10

 H   -3.978493341513   -2.225456212350   -1.186205623751
 H   -3.077017341513   -1.023242212350   -2.161452623751
 H   -2.175541341513   -2.225456212350   -1.186205623751
 C   -3.077017341513   -1.594607212350   -1.221733623751
 S   -3.077017341513   -0.396732212350    0.150804376249
 C   -3.077017341513   -1.594607212350    1.523342376249
 H   -2.175541341513   -2.225456212350    1.487814376249
 H   -3.077017341513   -1.023242212350    2.463061376249
 H   -3.978493341513   -2.225456212350    1.487814376249
CS    1.435859864563    0.466413550831   -0.070371378261
