10

 H   -4.045385022851   -2.238250106069   -1.182927267746
 H   -3.143909022851   -1.036036106069   -2.158174267746
 H   -2.242433022851   -2.238250106069   -1.182927267746
 C   -3.143909022851   -1.607401106069   -1.218455267746
 S   -3.143909022851   -0.409526106069    0.154082732254
 C   -3.143909022851   -1.607401106069    1.526620732254
 H   -2.242433022851   -2.238250106069    1.491092732254
 H   -3.143909022851   -1.036036106069    2.466339732254
 H   -4.045385022851   -2.238250106069    1.491092732254
CS    1.467074209444    0.472383695442   -0.071901190832
