10

 H   -4.246060066862   -2.276631787224   -1.173092199729
 H   -3.344584066862   -1.074417787224   -2.148339199729
 H   -2.443108066862   -2.276631787224   -1.173092199729
 C   -3.344584066862   -1.645782787224   -1.208620199729
 S   -3.344584066862   -0.447907787224    0.163917800271
 C   -3.344584066862   -1.645782787224    1.536455800271
 H   -2.443108066862   -2.276631787224    1.500927800271
 H   -3.344584066862   -1.074417787224    2.476174800271
 H   -4.246060066862   -2.276631787224    1.500927800271
CS    1.560717244090    0.490294129278   -0.076490628545
