10

 H   -4.312951748200   -2.289425680942   -1.169813843724
 H   -3.411475748200   -1.087211680942   -2.145060843724
 H   -2.509999748200   -2.289425680942   -1.169813843724
 C   -3.411475748200   -1.658576680942   -1.205341843724
 S   -3.411475748200   -0.460701680942    0.167196156276
 C   -3.411475748200   -1.658576680942    1.539734156276
 H   -2.509999748200   -2.289425680942    1.504206156276
 H   -3.411475748200   -1.087211680942    2.479453156276
 H   -4.312951748200   -2.289425680942    1.504206156276
CS    1.591931588972    0.496264273889   -0.078020441116
