10

 H   -4.446735110874   -2.315013468379   -1.163257131713
 H   -3.545259110874   -1.112799468379   -2.138504131713
 H   -2.643783110874   -2.315013468379   -1.163257131713
 C   -3.545259110874   -1.684164468379   -1.198785131713
 S   -3.545259110874   -0.486289468379    0.173752868287
 C   -3.545259110874   -1.684164468379    1.546290868287
 H   -2.643783110874   -2.315013468379    1.510762868287
 H   -3.545259110874   -1.112799468379    2.486009868287
 H   -4.446735110874   -2.315013468379    1.510762868287
CS    1.654360278735    0.508204563113   -0.081080066258
