10

 H   -4.580518473549   -2.340601255815   -1.156700419702
 H   -3.679042473549   -1.138387255815   -2.131947419702
 H   -2.777566473549   -2.340601255815   -1.156700419702
 C   -3.679042473549   -1.709752255815   -1.192228419702
 S   -3.679042473549   -0.511877255815    0.180309580298
 C   -3.679042473549   -1.709752255815    1.552847580298
 H   -2.777566473549   -2.340601255815    1.517319580298
 H   -3.679042473549   -1.138387255815    2.492566580298
 H   -4.580518473549   -2.340601255815    1.517319580298
CS    1.716788968499    0.520144852336   -0.084139691399
