10

 H   -4.781193517560   -2.378982936970   -1.146865351686
 H   -3.879717517560   -1.176768936970   -2.122112351686
 H   -2.978241517560   -2.378982936970   -1.146865351686
 C   -3.879717517560   -1.748133936970   -1.182393351686
 S   -3.879717517560   -0.550258936970    0.190144648314
 C   -3.879717517560   -1.748133936970    1.562682648314
 H   -2.978241517560   -2.378982936970    1.527154648314
 H   -3.879717517560   -1.176768936970    2.502401648314
 H   -4.781193517560   -2.378982936970    1.527154648314
CS    1.810432003144    0.538055286171   -0.088729129112
