10

 H   -5.115651924247   -2.442952405562   -1.130473571659
 H   -4.214175924247   -1.240738405562   -2.105720571659
 H   -3.312699924247   -2.442952405562   -1.130473571659
 C   -4.214175924247   -1.812103405562   -1.166001571659
 S   -4.214175924247   -0.614228405562    0.206536428341
 C   -4.214175924247   -1.812103405562    1.579074428341
 H   -3.312699924247   -2.442952405562    1.543546428341
 H   -4.214175924247   -1.240738405562    2.518793428341
 H   -5.115651924247   -2.442952405562    1.543546428341
CS    1.966503727553    0.567906009230   -0.096378191967
