10

 H   -5.316326968258   -2.481334086717   -1.120638503643
 H   -4.414850968258   -1.279120086717   -2.095885503643
 H   -3.513374968258   -2.481334086717   -1.120638503643
 C   -4.414850968258   -1.850485086717   -1.156166503643
 S   -4.414850968258   -0.652610086717    0.216371496357
 C   -4.414850968258   -1.850485086717    1.588909496357
 H   -3.513374968258   -2.481334086717    1.553381496357
 H   -4.414850968258   -1.279120086717    2.528628496357
 H   -5.316326968258   -2.481334086717    1.553381496357
CS    2.060146762198    0.585816443065   -0.100967629679
