10

 H   -5.650785374944   -2.545303555308   -1.104246723616
 H   -4.749309374944   -1.343089555308   -2.079493723616
 H   -3.847833374944   -2.545303555308   -1.104246723616
 C   -4.749309374944   -1.914454555308   -1.139774723616
 S   -4.749309374944   -0.716579555308    0.232763276384
 C   -4.749309374944   -1.914454555308    1.605301276384
 H   -3.847833374944   -2.545303555308    1.569773276384
 H   -4.749309374944   -1.343089555308    2.545020276384
 H   -5.650785374944   -2.545303555308    1.569773276384
CS    2.216218486607    0.615667166124   -0.108616692534
