10

 H   -5.717677056282   -2.558097449026   -1.100968367610
 H   -4.816201056282   -1.355883449026   -2.076215367610
 H   -3.914725056282   -2.558097449026   -1.100968367610
 C   -4.816201056282   -1.927248449026   -1.136496367610
 S   -4.816201056282   -0.729373449026    0.236041632390
 C   -4.816201056282   -1.927248449026    1.608579632390
 H   -3.914725056282   -2.558097449026    1.573051632390
 H   -4.816201056282   -1.355883449026    2.548298632390
 H   -5.717677056282   -2.558097449026    1.573051632390
CS    2.247432831489    0.621637310735   -0.110146505105
