10

 H   -5.985243781631   -2.609273023900   -1.087854943589
 H   -5.083767781631   -1.407059023900   -2.063101943589
 H   -4.182291781631   -2.609273023900   -1.087854943589
 C   -5.083767781631   -1.978424023900   -1.123382943589
 S   -5.083767781631   -0.780549023900    0.249155056411
 C   -5.083767781631   -1.978424023900    1.621693056411
 H   -4.182291781631   -2.609273023900    1.586165056411
 H   -5.083767781631   -1.407059023900    2.561412056411
 H   -5.985243781631   -2.609273023900    1.586165056411
CS    2.372290211016    0.645517889182   -0.116265755388
