10

 H   -6.119027144305   -2.634860811336   -1.081298231578
 H   -5.217551144305   -1.432646811336   -2.056545231578
 H   -4.316075144305   -2.634860811336   -1.081298231578
 C   -5.217551144305   -2.004011811336   -1.116826231578
 S   -5.217551144305   -0.806136811336    0.255711768422
 C   -5.217551144305   -2.004011811336    1.628249768422
 H   -4.316075144305   -2.634860811336    1.592721768422
 H   -5.217551144305   -1.432646811336    2.567968768422
 H   -6.119027144305   -2.634860811336    1.592721768422
CS    2.434718900780    0.657458178406   -0.119325380530
