10

 H   -6.252810506980   -2.660448598773   -1.074741519567
 H   -5.351334506980   -1.458234598773   -2.049988519567
 H   -4.449858506980   -2.660448598773   -1.074741519567
 C   -5.351334506980   -2.029599598773   -1.110269519567
 S   -5.351334506980   -0.831724598773    0.262268480433
 C   -5.351334506980   -2.029599598773    1.634806480433
 H   -4.449858506980   -2.660448598773    1.599278480433
 H   -5.351334506980   -1.458234598773    2.574525480433
 H   -6.252810506980   -2.660448598773    1.599278480433
CS    2.497147590544    0.669398467629   -0.122385005672
