10

 H   -6.386593869654   -2.686036386210   -1.068184807556
 H   -5.485117869654   -1.483822386210   -2.043431807556
 H   -4.583641869654   -2.686036386210   -1.068184807556
 C   -5.485117869654   -2.055187386210   -1.103712807556
 S   -5.485117869654   -0.857312386210    0.268825192444
 C   -5.485117869654   -2.055187386210    1.641363192444
 H   -4.583641869654   -2.686036386210    1.605835192444
 H   -5.485117869654   -1.483822386210    2.581082192444
 H   -6.386593869654   -2.686036386210    1.605835192444
CS    2.559576280307    0.681338756853   -0.125444630814
