10

 H   -6.453485550991   -2.698830279928   -1.064906451551
 H   -5.552009550991   -1.496616279928   -2.040153451551
 H   -4.650533550991   -2.698830279928   -1.064906451551
 C   -5.552009550991   -2.067981279928   -1.100434451551
 S   -5.552009550991   -0.870106279928    0.272103548449
 C   -5.552009550991   -2.067981279928    1.644641548449
 H   -4.650533550991   -2.698830279928    1.609113548449
 H   -5.552009550991   -1.496616279928    2.584360548449
 H   -6.453485550991   -2.698830279928    1.609113548449
CS    2.590790625189    0.687308901464   -0.126974443385
