10

 H   -6.587268913666   -2.724418067364   -1.058349739540
 H   -5.685792913666   -1.522204067364   -2.033596739540
 H   -4.784316913666   -2.724418067364   -1.058349739540
 C   -5.685792913666   -2.093569067364   -1.093877739540
 S   -5.685792913666   -0.895694067364    0.278660260460
 C   -5.685792913666   -2.093569067364    1.651198260460
 H   -4.784316913666   -2.724418067364    1.615670260460
 H   -5.685792913666   -1.522204067364    2.590917260460
 H   -6.587268913666   -2.724418067364    1.615670260460
CS    2.653219314953    0.699249190688   -0.130034068526
