10

 H   -6.654160595003   -2.737211961083   -1.055071383534
 H   -5.752684595003   -1.534997961083   -2.030318383534
 H   -4.851208595003   -2.737211961083   -1.055071383534
 C   -5.752684595003   -2.106362961083   -1.090599383534
 S   -5.752684595003   -0.908487961083    0.281938616466
 C   -5.752684595003   -2.106362961083    1.654476616466
 H   -4.851208595003   -2.737211961083    1.618948616466
 H   -5.752684595003   -1.534997961083    2.594195616466
 H   -6.654160595003   -2.737211961083    1.618948616466
CS    2.684433659834    0.705219335299   -0.131563881097
