10

 H   -6.721052276340   -2.750005854801   -1.051793027529
 H   -5.819576276340   -1.547791854801   -2.027040027529
 H   -4.918100276340   -2.750005854801   -1.051793027529
 C   -5.819576276340   -2.119156854801   -1.087321027529
 S   -5.819576276340   -0.921281854801    0.285216972471
 C   -5.819576276340   -2.119156854801    1.657754972471
 H   -4.918100276340   -2.750005854801    1.622226972471
 H   -5.819576276340   -1.547791854801    2.597473972471
 H   -6.721052276340   -2.750005854801    1.622226972471
CS    2.715648004716    0.711189479911   -0.133093693668
