10

 H   -6.787943957678   -2.762799748519   -1.048514671524
 H   -5.886467957678   -1.560585748519   -2.023761671524
 H   -4.984991957678   -2.762799748519   -1.048514671524
 C   -5.886467957678   -2.131950748519   -1.084042671524
 S   -5.886467957678   -0.934075748519    0.288495328476
 C   -5.886467957678   -2.131950748519    1.661033328476
 H   -4.984991957678   -2.762799748519    1.625505328476
 H   -5.886467957678   -1.560585748519    2.600752328476
 H   -6.787943957678   -2.762799748519    1.625505328476
CS    2.746862349598    0.717159624523   -0.134623506239
