10

 H   -7.055510683027   -2.813975323393   -1.035401247502
 H   -6.154034683027   -1.611761323393   -2.010648247502
 H   -5.252558683027   -2.813975323393   -1.035401247502
 C   -6.154034683027   -2.183126323393   -1.070929247502
 S   -6.154034683027   -0.985251323393    0.301608752498
 C   -6.154034683027   -2.183126323393    1.674146752498
 H   -5.252558683027   -2.813975323393    1.638618752498
 H   -6.154034683027   -1.611761323393    2.613865752498
 H   -7.055510683027   -2.813975323393    1.638618752498
CS    2.871719729125    0.741040202970   -0.140742756523
