10

 H   -7.122402364364   -2.826769217111   -1.032122891497
 H   -6.220926364364   -1.624555217111   -2.007369891497
 H   -5.319450364364   -2.826769217111   -1.032122891497
 C   -6.220926364364   -2.195920217111   -1.067650891497
 S   -6.220926364364   -0.998045217111    0.304887108503
 C   -6.220926364364   -2.195920217111    1.677425108503
 H   -5.319450364364   -2.826769217111    1.641897108503
 H   -6.220926364364   -1.624555217111    2.617144108503
 H   -7.122402364364   -2.826769217111    1.641897108503
CS    2.902934074007    0.747010347581   -0.142272569094
