10

 H   -7.189294045701   -2.839563110829   -1.028844535491
 H   -6.287818045701   -1.637349110829   -2.004091535491
 H   -5.386342045701   -2.839563110829   -1.028844535491
 C   -6.287818045701   -2.208714110829   -1.064372535491
 S   -6.287818045701   -1.010839110829    0.308165464509
 C   -6.287818045701   -2.208714110829    1.680703464509
 H   -5.386342045701   -2.839563110829    1.645175464509
 H   -6.287818045701   -1.637349110829    2.620422464509
 H   -7.189294045701   -2.839563110829    1.645175464509
CS    2.934148418889    0.752980492193   -0.143802381664
