10

 H   -7.323077408376   -2.865150898266   -1.022287823480
 H   -6.421601408376   -1.662936898266   -1.997534823480
 H   -5.520125408376   -2.865150898266   -1.022287823480
 C   -6.421601408376   -2.234301898266   -1.057815823480
 S   -6.421601408376   -1.036426898266    0.314722176520
 C   -6.421601408376   -2.234301898266    1.687260176520
 H   -5.520125408376   -2.865150898266    1.651732176520
 H   -6.421601408376   -1.662936898266    2.626979176520
 H   -7.323077408376   -2.865150898266    1.651732176520
CS    2.996577108652    0.764920781417   -0.146862006806
