10

 C    1.614064590637   -0.791941190672   -0.715653924949
 C    0.514765590637    0.256918809328   -0.715653924949
 N   -0.764842409363   -0.246870190672   -0.715653924949
 H   -1.539515409363    0.403713809328   -0.715653924949
 H   -0.951513409363   -1.238921190672   -0.715653924949
 O    0.736357590637    1.469920809328   -0.715653924949
 H    2.584729590637   -0.282796190672   -0.715653924949
 H    1.534426590637   -1.432946190672    0.176593075051
 H    1.534426590637   -1.432946190672   -1.607900924949
 K   -0.764842409363   -0.246870190672    1.084346075051
