10

 C    1.614064590637   -0.791941190672   -1.550583504055
 C    0.514765590637    0.256918809328   -1.550583504055
 N   -0.764842409363   -0.246870190672   -1.550583504055
 H   -1.539515409363    0.403713809328   -1.550583504055
 H   -0.951513409363   -1.238921190672   -1.550583504055
 O    0.736357590637    1.469920809328   -1.550583504055
 H    2.584729590637   -0.282796190672   -1.550583504055
 H    1.534426590637   -1.432946190672   -0.658336504055
 H    1.534426590637   -1.432946190672   -2.442830504055
 K   -0.764842409363   -0.246870190672    2.349416495945
