10

 C    1.614064590637   -0.791941190672   -2.942132802567
 C    0.514765590637    0.256918809328   -2.942132802567
 N   -0.764842409363   -0.246870190672   -2.942132802567
 H   -1.539515409363    0.403713809328   -2.942132802567
 H   -0.951513409363   -1.238921190672   -2.942132802567
 O    0.736357590637    1.469920809328   -2.942132802567
 H    2.584729590637   -0.282796190672   -2.942132802567
 H    1.534426590637   -1.432946190672   -2.049885802567
 H    1.534426590637   -1.432946190672   -3.834379802567
 K   -0.764842409363   -0.246870190672    4.457867197433
