11

 H   -2.400499460236   -0.628109146158    0.664993334685
 H   -2.517533565626   -1.378207817882   -0.962074920369
 H   -2.400619830649    0.407690759801   -0.818588181656
 C   -2.080578097727   -0.550190656726   -0.384007638044
 S   -0.271677869709   -0.738215119843   -0.515427399552
 S    0.218819645608    0.959207274341    0.669631602921
 C    2.027719870820    0.771044129938    0.538410517063
 H    2.347642949659   -0.186848318076    0.973054434104
 H    2.464675354270    1.599047263793    1.116497920430
 H    2.347759958062    0.848907138198   -0.510558243644
LI    0.354062123006   -1.479971107630   -1.033353568131
