11

 H   -2.412353336522   -0.614057489214    0.674804810377
 H   -2.529387441912   -1.364156160938   -0.952263444677
 H   -2.412473706935    0.421742416745   -0.808776705964
 C   -2.092431974013   -0.536138999782   -0.374196162352
 S   -0.283531745995   -0.724163462899   -0.505615923860
 S    0.206965769322    0.973258931285    0.679443078613
 C    2.015865994534    0.785095786882    0.548221992755
 H    2.335789073373   -0.172796661132    0.982865909796
 H    2.452821477984    1.613098920737    1.126309396122
 H    2.335906081776    0.862958795142   -0.500746767952
LI    0.512864608369   -1.668216538264   -1.164794683870
