11

 H   -2.416304628618   -0.609373603565    0.678075302275
 H   -2.533338734008   -1.359472275289   -0.948992952779
 H   -2.416424999031    0.426426302394   -0.805506214066
 C   -2.096383266109   -0.531455114133   -0.370925670454
 S   -0.287483038091   -0.719479577250   -0.502345431962
 S    0.203014477226    0.977942816934    0.682713570511
 C    2.011914702438    0.789779672531    0.551492484653
 H    2.331837781277   -0.168112775483    0.986136401694
 H    2.448870185888    1.617782806386    1.129579888020
 H    2.331954789680    0.867642680791   -0.497476276054
LI    0.565798770157   -1.730965015141   -1.208608389117
