11

 H   -2.436061089096   -0.585954175324    0.694427761761
 H   -2.553095194486   -1.336052847048   -0.932640493293
 H   -2.436181459509    0.449845730635   -0.789153754580
 C   -2.116139726587   -0.508035685892   -0.354573210968
 S   -0.307239498569   -0.696060149009   -0.485992972476
 S    0.183258016748    1.001362245175    0.699066029997
 C    1.992158241960    0.813199100772    0.567844944139
 H    2.312081320799   -0.144693347242    1.002488861180
 H    2.429113725410    1.641202234627    1.145932347506
 H    2.312198329202    0.891062109032   -0.481123816568
LI    0.830469579095   -2.044707399531   -1.427676915348
