11

 H   -2.440012381191   -0.581270289676    0.697698253658
 H   -2.557046486581   -1.331368961400   -0.929370001396
 H   -2.440132751604    0.454529616283   -0.785883262683
 C   -2.120091018682   -0.503351800244   -0.351302719071
 S   -0.311190790664   -0.691376263361   -0.482722480579
 S    0.179306724653    1.006046130823    0.702336521894
 C    1.988206949865    0.817882986420    0.571115436036
 H    2.308130028704   -0.140009461594    1.005759353077
 H    2.425162433315    1.645886120275    1.149202839403
 H    2.308247037107    0.895745994680   -0.477853324671
LI    0.883403740883   -2.107455876409   -1.471490620594
