11

 H   -2.443963673287   -0.576586404028    0.700968745556
 H   -2.560997778677   -1.326685075752   -0.926099509498
 H   -2.444084043700    0.459213501931   -0.782612770785
 C   -2.124042310778   -0.498667914596   -0.348032227173
 S   -0.315142082760   -0.686692377713   -0.479451988681
 S    0.175355432557    1.010730016471    0.705607013792
 C    1.984255657769    0.822566872068    0.574385927934
 H    2.304178736608   -0.135325575946    1.009029844975
 H    2.421211141219    1.650570005923    1.152473331301
 H    2.304295745011    0.900429880328   -0.474582832773
LI    0.936337902670   -2.170204353287   -1.515304325841
