11

 H   -2.447914965382   -0.571902518380    0.704239237453
 H   -2.564949070772   -1.322001190104   -0.922829017601
 H   -2.448035335795    0.463897387579   -0.779342278888
 C   -2.127993602873   -0.493984028948   -0.344761735276
 S   -0.319093374855   -0.682008492065   -0.476181496784
 S    0.171404140462    1.015413902119    0.708877505689
 C    1.980304365674    0.827250757716    0.577656419831
 H    2.300227444513   -0.130641690298    1.012300336872
 H    2.417259849124    1.655253891571    1.155743823198
 H    2.300344452916    0.905113765976   -0.471312340876
LI    0.989272064458   -2.232952830164   -1.559118031087
