11

 H   -2.459768841669   -0.557850861435    0.714050713145
 H   -2.576802947059   -1.307949533159   -0.913017541909
 H   -2.459889212082    0.477949044524   -0.769530803196
 C   -2.139847479160   -0.479932372003   -0.334950259584
 S   -0.330947251142   -0.667956835120   -0.466370021092
 S    0.159550264175    1.029465559064    0.718688981381
 C    1.968450489387    0.841302414661    0.587467895523
 H    2.288373568226   -0.116590033353    1.022111812564
 H    2.405405972837    1.669305548516    1.165555298890
 H    2.288490576629    0.919165422921   -0.461500865184
LI    1.148074549821   -2.421198260798   -1.690559146826
