11

 H   -2.467671425860   -0.548483090139    0.720591696940
 H   -2.584705531250   -1.298581761863   -0.906476558114
 H   -2.467791796273    0.487316815820   -0.762989819401
 C   -2.147750063351   -0.470564600707   -0.328409275789
 S   -0.338849835333   -0.658589063824   -0.459829037297
 S    0.151647679984    1.038833330360    0.725229965176
 C    1.960547905196    0.850670185957    0.594008879318
 H    2.280470984035   -0.107222262057    1.028652796359
 H    2.397503388646    1.678673319812    1.172096282685
 H    2.280587992438    0.928533194217   -0.454959881389
LI    1.253942873396   -2.546695214554   -1.778186557319
