11

 H   -2.471622717956   -0.543799204491    0.723862188837
 H   -2.588656823346   -1.293897876215   -0.903206066217
 H   -2.471743088369    0.492000701468   -0.759719327504
 C   -2.151701355447   -0.465880715059   -0.325138783892
 S   -0.342801127429   -0.653905178176   -0.456558545400
 S    0.147696387888    1.043517216008    0.728500457073
 C    1.956596613100    0.855354071605    0.597279371215
 H    2.276519691939   -0.102538376409    1.031923288256
 H    2.393552096550    1.683357205460    1.175366774582
 H    2.276636700342    0.933217079865   -0.451689389492
LI    1.306877035183   -2.609443691432   -1.822000262565
