11

 H   -2.475574010051   -0.539115318843    0.727132680734
 H   -2.592608115441   -1.289213990567   -0.899935574320
 H   -2.475694380464    0.496684587116   -0.756448835607
 C   -2.155652647542   -0.461196829411   -0.321868291995
 S   -0.346752419524   -0.649221292528   -0.453288053503
 S    0.143745095793    1.048201101656    0.731770948970
 C    1.952645321005    0.860037957253    0.600549863112
 H    2.272568399844   -0.097854490761    1.035193780153
 H    2.389600804455    1.688041091108    1.178637266479
 H    2.272685408247    0.937900965513   -0.448418897595
LI    1.359811196971   -2.672192168309   -1.865813967811
