11

 H   -2.483476594242   -0.529747547546    0.733673664529
 H   -2.600510699632   -1.279846219270   -0.893394590525
 H   -2.483596964655    0.506052358413   -0.749907851812
 C   -2.163555231733   -0.451829058114   -0.315327308200
 S   -0.354655003715   -0.639853521231   -0.446747069708
 S    0.135842511602    1.057568872953    0.738311932765
 C    1.944742736814    0.869405728550    0.607090846907
 H    2.264665815653   -0.088486719464    1.041734763948
 H    2.381698220264    1.697408862405    1.185178250274
 H    2.264782824056    0.947268736810   -0.441877913800
LI    1.465679520546   -2.797689122065   -1.953441378304
