11

 H   -2.491379178434   -0.520379776250    0.740214648323
 H   -2.608413283824   -1.270478447974   -0.886853606731
 H   -2.491499548847    0.515420129709   -0.743366868018
 C   -2.171457815925   -0.442461286818   -0.308786324406
 S   -0.362557587907   -0.630485749935   -0.440206085914
 S    0.127939927410    1.066936644249    0.744852916559
 C    1.936840152622    0.878773499846    0.613631830701
 H    2.256763231461   -0.079118948168    1.048275747742
 H    2.373795636072    1.706776633701    1.191719234068
 H    2.256880239864    0.956636508106   -0.435336930006
LI    1.571547844122   -2.923186075821   -2.041068788796
