11

 H   -2.503233054720   -0.506328119305    0.750026124015
 H   -2.620267160110   -1.256426791029   -0.877042131039
 H   -2.503353425133    0.529471786654   -0.733555392326
 C   -2.183311692211   -0.428409629873   -0.298974848714
 S   -0.374411464193   -0.616434092990   -0.430394610222
 S    0.116086051124    1.080988301194    0.754664392251
 C    1.924986276336    0.892825156791    0.623443306393
 H    2.244909355175   -0.065067291223    1.058087223434
 H    2.361941759786    1.720828290646    1.201530709760
 H    2.245026363578    0.970688165051   -0.425525454314
LI    1.730350329484   -3.111431506455   -2.172509904535
