11

 H   -2.519038223102   -0.487592576712    0.763108091605
 H   -2.636072328492   -1.237691248436   -0.863960163449
 H   -2.519158593515    0.548207329247   -0.720473424736
 C   -2.199116860593   -0.409674087280   -0.285892881124
 S   -0.390216632575   -0.597698550397   -0.417312642632
 S    0.100280882742    1.099723843787    0.767746359841
 C    1.909181107954    0.911560699384    0.636525273983
 H    2.229104186793   -0.046331748630    1.071169191024
 H    2.346136591404    1.739563833239    1.214612677350
 H    2.229221195196    0.989423707644   -0.412443486724
LI    1.942086976635   -3.362425413966   -2.347764725520
