11

 H   -2.530892099389   -0.473540919768    0.772919567296
 H   -2.647926204779   -1.223639591492   -0.854148687758
 H   -2.531012469802    0.562258986191   -0.710661949045
 C   -2.210970736880   -0.395622430336   -0.276081405433
 S   -0.402070508862   -0.583646893453   -0.407501166941
 S    0.088427006455    1.113775500731    0.777557835532
 C    1.897327231667    0.925612356328    0.646336749674
 H    2.217250310506   -0.032280091686    1.080980666715
 H    2.334282715117    1.753615490183    1.224424153041
 H    2.217367318909    1.003475364588   -0.402632011033
LI    2.100889461998   -3.550670844600   -2.479205841259
