11

 H   -2.570405020345   -0.426702063286    0.805624486269
 H   -2.687439125735   -1.176800735010   -0.821443768785
 H   -2.570525390758    0.609097842673   -0.677957030072
 C   -2.250483657836   -0.348783573854   -0.243376486460
 S   -0.441583429818   -0.536808036971   -0.374796247968
 S    0.048914085499    1.160614357213    0.810262754505
 C    1.857814310711    0.972451212810    0.679041668647
 H    2.177737389550    0.014558764796    1.113685585688
 H    2.294769794161    1.800454346665    1.257129072014
 H    2.177854397953    1.050314221070   -0.369927092060
LI    2.630231079874   -4.178155613378   -2.917342893722
