11

 H   -2.578307604536   -0.417334291989    0.812165470064
 H   -2.695341709926   -1.167432963713   -0.814902784990
 H   -2.578427974949    0.618465613970   -0.671416046277
 C   -2.258386242027   -0.339415802557   -0.236835502665
 S   -0.449486014009   -0.527440265674   -0.368255264173
 S    0.041011501308    1.169982128510    0.816803738300
 C    1.849911726520    0.981818984107    0.685582652442
 H    2.169834805359    0.023926536093    1.120226569483
 H    2.286867209970    1.809822117962    1.263670055809
 H    2.169951813762    1.059681992367   -0.363386108265
LI    2.736099403449   -4.303652567134   -3.004970304215
