11

 H   -2.598064065014   -0.393914863748    0.828517929551
 H   -2.715098170404   -1.144013535472   -0.798550325503
 H   -2.598184435427    0.641885042211   -0.655063586790
 C   -2.278142702505   -0.315996374316   -0.220483043178
 S   -0.469242474487   -0.504020837433   -0.351902804686
 S    0.021255040830    1.193401556751    0.833156197787
 C    1.830155266042    1.005238412348    0.701935111929
 H    2.150078344881    0.047345964334    1.136579028970
 H    2.267110749492    1.833241546203    1.280022515296
 H    2.150195353284    1.083101420608   -0.347033648778
LI    3.000770212387   -4.617394951523   -3.224038830446
