11

 H   -2.613869233396   -0.375179321156    0.841599897140
 H   -2.730903338786   -1.125277992880   -0.785468357914
 H   -2.613989603809    0.660620584803   -0.641981619201
 C   -2.293947870887   -0.297260831724   -0.207401075589
 S   -0.485047642869   -0.485285294841   -0.338820837097
 S    0.005449872448    1.212137099343    0.846238165376
 C    1.814350097660    1.023973954940    0.715017079518
 H    2.134273176499    0.066081506926    1.149660996559
 H    2.251305581110    1.851977088795    1.293104482885
 H    2.134390184902    1.101836963200   -0.333951681189
LI    3.212506859538   -4.868388859035   -3.399293651432
