11

 H   -2.621771817587   -0.365811549859    0.848140880934
 H   -2.738805922977   -1.115910221583   -0.778927374120
 H   -2.621892188000    0.669988356100   -0.635440635407
 C   -2.301850455078   -0.287893060427   -0.200860091795
 S   -0.492950227060   -0.475917523544   -0.332279853303
 S   -0.002452711743    1.221504870640    0.852779149170
 C    1.806447513469    1.033341726237    0.721558063312
 H    2.126370592308    0.075449278223    1.156201980353
 H    2.243402996919    1.861344860092    1.299645466679
 H    2.126487600711    1.111204734497   -0.327410697395
LI    3.318375183113   -4.993885812791   -3.486921061924
