11

 H   -2.688943783212   -0.286185493840    0.903739243189
 H   -2.805977888602   -1.036284165564   -0.723329011865
 H   -2.689064153625    0.749614412119   -0.579842273152
 C   -2.369022420703   -0.208267004408   -0.145261729540
 S   -0.560122192685   -0.396291467525   -0.276681491048
 S   -0.069624677368    1.301130926659    0.908377511425
 C    1.739275547844    1.112967782256    0.777156425567
 H    2.059198626683    0.155075334242    1.211800342608
 H    2.176231031294    1.940970916111    1.355243828934
 H    2.059315635086    1.190830790516   -0.271812335140
LI    4.218255933502   -6.060609919714   -4.231754051111
