11

 H   -2.696846367403   -0.276817722544    0.910280226983
 H   -2.813880472793   -1.026916394268   -0.716788028071
 H   -2.696966737816    0.758982183415   -0.573301289358
 C   -2.376925004894   -0.198899233112   -0.138720745746
 S   -0.568024776876   -0.386923696229   -0.270140507254
 S   -0.077527261559    1.310498697955    0.914918495219
 C    1.731372963653    1.122335553552    0.783697409361
 H    2.051296042492    0.164443105538    1.218341326402
 H    2.168328447103    1.950338687407    1.361784812728
 H    2.051413050895    1.200198561812   -0.265271351346
LI    4.324124257078   -6.186106873470   -4.319381461604
