11

 H   -2.704748951594   -0.267449951247    0.916821210778
 H   -2.821783056984   -1.017548622971   -0.710247044276
 H   -2.704869322007    0.768349954712   -0.566760305563
 C   -2.384827589085   -0.189531461815   -0.132179761951
 S   -0.575927361067   -0.377555924932   -0.263599523459
 S   -0.085429845750    1.319866469252    0.921459479014
 C    1.723470379462    1.131703324849    0.790238393156
 H    2.043393458301    0.173810876835    1.224882310197
 H    2.160425862912    1.959706458704    1.368325796523
 H    2.043510466704    1.209566333109   -0.258730367551
LI    4.429992580653   -6.311603827226   -4.407008872097
