11

 H   -2.708700243690   -0.262766065599    0.920091702675
 H   -2.825734349080   -1.012864737323   -0.706976552379
 H   -2.708820614103    0.773033840360   -0.563489813666
 C   -2.388778881181   -0.184847576167   -0.128909270054
 S   -0.579878653163   -0.372872039284   -0.260329031562
 S   -0.089381137846    1.324550354900    0.924729970911
 C    1.719519087366    1.136387210497    0.793508885053
 H    2.039442166205    0.178494762483    1.228152802094
 H    2.156474570816    1.964390344352    1.371596288420
 H    2.039559174608    1.214250218757   -0.255459875654
LI    4.482926742440   -6.374352304104   -4.450822577343
