11

 H   -2.712651535785   -0.258082179951    0.923362194573
 H   -2.829685641175   -1.008180851675   -0.703706060481
 H   -2.712771906198    0.777717726008   -0.560219321768
 C   -2.392730173276   -0.180163690519   -0.125638778156
 S   -0.583829945258   -0.368188153636   -0.257058539664
 S   -0.093332429941    1.329234240548    0.928000462809
 C    1.715567795271    1.141071096145    0.796779376951
 H    2.035490874110    0.183178648131    1.231423293992
 H    2.152523278721    1.969074230000    1.374866780318
 H    2.035607882513    1.218934104405   -0.252189383756
LI    4.535860904228   -6.437100780982   -4.494636282589
