11

 H   -2.720554119976   -0.248714408654    0.929903178367
 H   -2.837588225366   -0.998813080378   -0.697165076687
 H   -2.720674490389    0.787085497305   -0.553678337974
 C   -2.400632757467   -0.170795919222   -0.119097794362
 S   -0.591732529449   -0.358820382339   -0.250517555870
 S   -0.101235014132    1.338602011845    0.934541446603
 C    1.707665211080    1.150438867442    0.803320360745
 H    2.027588289919    0.192546419428    1.237964277786
 H    2.144620694530    1.978442001297    1.381407764112
 H    2.027705298322    1.228301875702   -0.245648399962
LI    4.641729227803   -6.562597734737   -4.582263693082
