11

 H   -2.732407996263   -0.234662751710    0.939714654059
 H   -2.849442101653   -0.984761423434   -0.687353600995
 H   -2.732528366676    0.801137154249   -0.543866862282
 C   -2.412486633754   -0.156744262278   -0.109286318670
 S   -0.603586405736   -0.344768725395   -0.240706080178
 S   -0.113088890419    1.352653668789    0.944352922295
 C    1.695811334793    1.164490524386    0.813131836437
 H    2.015734413632    0.206598076372    1.247775753478
 H    2.132766818243    1.992493658241    1.391219239804
 H    2.015851422035    1.242353532646   -0.235836924270
LI    4.800531713166   -6.750843165371   -4.713704808821
