11

 H   -2.736359288359   -0.229978866062    0.942985145956
 H   -2.853393393749   -0.980077537786   -0.684083109098
 H   -2.736479658772    0.805821039897   -0.540596370385
 C   -2.416437925850   -0.152060376630   -0.106015826773
 S   -0.607537697832   -0.340084839747   -0.237435588281
 S   -0.117040182515    1.357337554437    0.947623414192
 C    1.691860042697    1.169174410034    0.816402328334
 H    2.011783121536    0.211281962020    1.251046245375
 H    2.128815526147    1.997177543889    1.394489731701
 H    2.011900129939    1.247037418294   -0.232566432373
LI    4.853465874954   -6.813591642249   -4.757518514067
