16

 N   -0.242034430575    1.627958483788    0.039360207737
 C    1.128580981834    1.827433161629    0.035728573361
 H    1.450365278172    2.871178092505    0.057147389054
 C   -0.841749700004    0.374843324235    0.014830217081
 O   -2.059523731536    0.207900618168    0.015826297855
 N    0.083556315607   -0.661934285607   -0.012826319908
 H   -0.311017392256   -1.600448595456   -0.033335193306
 C    1.489286694002   -0.575895573289   -0.021274370699
 O    2.177607366430   -1.599512795091   -0.049382309252
 C    2.019055875067    0.792493295445    0.007331998435
 C    3.511345768673    0.976351620907    0.002501188609
 H    3.772893397753    2.044779497775    0.025155356756
 H    3.951490082263    0.518031401485   -0.896607062837
 H    3.962350975382    0.477865135601    0.874438025522
 H   -0.884340653904    2.412211521962    0.059255626027
 K   -2.550655147673   -0.995478443983   -0.010034190583
