16

 N   -0.215271450172    1.693533621522    0.040769410493
 C    1.155343962237    1.893008299363    0.037137776117
 H    1.477128258575    2.936753230239    0.058556591810
 C   -0.814986719601    0.440418461969    0.016239419837
 O   -2.032760751133    0.273475755902    0.017235500611
 N    0.110319296010   -0.596359147873   -0.011417117152
 H   -0.284254411853   -1.534873457722   -0.031925990550
 C    1.516049674405   -0.510320435555   -0.019865167943
 O    2.204370346833   -1.533937657357   -0.047973106496
 C    2.045818855470    0.858068433179    0.008741201191
 C    3.538108749076    1.041926758641    0.003910391365
 H    3.799656378156    2.110354635509    0.026564559512
 H    3.978253062666    0.583606539219   -0.895197860081
 H    3.989113955785    0.543440273335    0.875847228278
 H   -0.857577673501    2.477786659696    0.060664828783
 K   -2.637230186377   -1.207606166745   -0.014592792851
