16

 N   -0.170666482832    1.802825517745    0.043118081754
 C    1.199948929577    2.002300195586    0.039486447378
 H    1.521733225915    3.046045126462    0.060905263071
 C   -0.770381752261    0.549710358192    0.018588091098
 O   -1.988155783793    0.382767652125    0.019584171872
 N    0.154924263350   -0.487067251650   -0.009068445891
 H   -0.239649444513   -1.425581561499   -0.029577319289
 C    1.560654641745   -0.401028539332   -0.017516496682
 O    2.248975314173   -1.424645761134   -0.045624435235
 C    2.090423822810    0.967360329402    0.011089872452
 C    3.582713716416    1.151218654864    0.006259062626
 H    3.844261345496    2.219646531732    0.028913230773
 H    4.022858030006    0.692898435442   -0.892849188820
 H    4.033718923125    0.652732169558    0.878195899539
 H   -0.812972706161    2.587078555919    0.063013500044
 K   -2.781521917552   -1.561152371349   -0.022190463298
