16

 N   -0.152824495896    1.846542276234    0.044057550258
 C    1.217790916513    2.046016954075    0.040425915882
 H    1.539575212851    3.089761884951    0.061844731575
 C   -0.752539765325    0.593427116681    0.019527559602
 O   -1.970313796857    0.426484410614    0.020523640376
 N    0.172766250286   -0.443350493161   -0.008128977387
 H   -0.221807457577   -1.381864803010   -0.028637850785
 C    1.578496628681   -0.357311780843   -0.016577028178
 O    2.266817301109   -1.380929002645   -0.044684966731
 C    2.108265809746    1.011077087891    0.012029340956
 C    3.600555703352    1.194935413353    0.007198531130
 H    3.862103332432    2.263363290221    0.029852699277
 H    4.040700016942    0.736615193931   -0.891909720316
 H    4.051560910061    0.696448928047    0.879135368043
 H   -0.795130719225    2.630795314408    0.063952968548
 K   -2.839238610022   -1.702570853190   -0.025229531477
