16

 N   -0.117140522025    1.933975793212    0.045936487266
 C    1.253474890384    2.133450471053    0.042304852890
 H    1.575259186722    3.177195401929    0.063723668583
 C   -0.716855791454    0.680860633659    0.021406496610
 O   -1.934629822986    0.513917927592    0.022402577384
 N    0.208450224157   -0.355916976183   -0.006250040379
 H   -0.186123483706   -1.294431286032   -0.026758913777
 C    1.614180602552   -0.269878263865   -0.014698091170
 O    2.302501274980   -1.293495485667   -0.042806029723
 C    2.143949783617    1.098510604869    0.013908277964
 C    3.636239677223    1.282368930331    0.009077468138
 H    3.897787306303    2.350796807199    0.031731636285
 H    4.076383990813    0.824048710909   -0.890030783308
 H    4.087244883932    0.783882445025    0.881014305051
 H   -0.759446745354    2.718228831386    0.065831905556
 K   -2.954671994961   -1.985407816874   -0.031307667834
