16

 N   -0.108219528557    1.955834172457    0.046406221518
 C    1.262395883852    2.155308850298    0.042774587142
 H    1.584180180190    3.199053781174    0.064193402835
 C   -0.707934797986    0.702719012904    0.021876230862
 O   -1.925708829518    0.535776306837    0.022872311636
 N    0.217371217625   -0.334058596938   -0.005780306127
 H   -0.177202490238   -1.272572906787   -0.026289179525
 C    1.623101596020   -0.248019884620   -0.014228356918
 O    2.311422268448   -1.271637106422   -0.042336295471
 C    2.152870777085    1.120368984114    0.014378012216
 C    3.645160670691    1.304227309576    0.009547202390
 H    3.906708299771    2.372655186444    0.032201370537
 H    4.085304984281    0.845907090154   -0.889561049056
 H    4.096165877400    0.805740824270    0.881484039303
 H   -0.750525751886    2.740087210631    0.066301639808
 K   -2.983530341196   -2.056117057794   -0.032827201923
