16

 N   -0.072535554685    2.043267689435    0.048285158527
 C    1.298079857724    2.242742367276    0.044653524151
 H    1.619864154062    3.286487298152    0.066072339844
 C   -0.672250824114    0.790152529882    0.023755167871
 O   -1.890024855646    0.623209823815    0.024751248645
 N    0.253055191497   -0.246625079960   -0.003901369118
 H   -0.141518516366   -1.185139389809   -0.024410242516
 C    1.658785569892   -0.160586367642   -0.012349419909
 O    2.347106242320   -1.184203589444   -0.040457358462
 C    2.188554750957    1.207802501092    0.016256949225
 C    3.680844644563    1.391660826554    0.011426139399
 H    3.942392273643    2.460088703422    0.034080307546
 H    4.120988958153    0.933340607132   -0.887682112047
 H    4.131849851272    0.893174341248    0.883362976312
 H   -0.714841778014    2.827520727609    0.068180576817
 K   -3.098963726136   -2.338954021478   -0.038905338281
