16

 N   -0.027930587346    2.152559585658    0.050633829787
 C    1.342684825063    2.352034263499    0.047002195411
 H    1.664469121401    3.395779194375    0.068421011104
 C   -0.627645856775    0.899444426105    0.026103839131
 O   -1.845419888307    0.732501720038    0.027099919905
 N    0.297660158836   -0.137333183737   -0.001552697858
 H   -0.096913549027   -1.075847493586   -0.022061571256
 C    1.703390537231   -0.051294471419   -0.010000748649
 O    2.391711209659   -1.074911693221   -0.038108687202
 C    2.233159718296    1.317094397315    0.018605620485
 C    3.725449611902    1.500952722777    0.013774810659
 H    3.986997240982    2.569380599645    0.036428978806
 H    4.165593925492    1.042632503355   -0.885333440787
 H    4.176454818611    1.002466237471    0.885711647572
 H   -0.670236810675    2.936812623832    0.070529248077
 K   -3.243255457310   -2.692500226082   -0.046503008727
