16

 N   -0.019009593878    2.174417964903    0.051103564039
 C    1.351605818531    2.373892642744    0.047471929663
 H    1.673390114869    3.417637573620    0.068890745356
 C   -0.618724863307    0.921302805350    0.026573573383
 O   -1.836498894839    0.754360099283    0.027569654157
 N    0.306581152304   -0.115474804492   -0.001082963606
 H   -0.087992555559   -1.053989114341   -0.021591837004
 C    1.712311530699   -0.029436092174   -0.009531014397
 O    2.400632203127   -1.053053313976   -0.037638952950
 C    2.242080711764    1.338952776560    0.019075354737
 C    3.734370605370    1.522811102022    0.014244544911
 H    3.995918234450    2.591238978890    0.036898713058
 H    4.174514918960    1.064490882600   -0.884863706535
 H    4.185375812079    1.024324616716    0.886181381824
 H   -0.661315817207    2.958671003077    0.070998982329
 K   -3.272113803545   -2.763209467002   -0.048022542817
