16

 N   -0.010088600410    2.196276344148    0.051573298291
 C    1.360526811999    2.395751021989    0.047941663915
 H    1.682311108337    3.439495952865    0.069360479608
 C   -0.609803869839    0.943161184595    0.027043307635
 O   -1.827577901371    0.776218478528    0.028039388409
 N    0.315502145772   -0.093616425247   -0.000613229354
 H   -0.079071562091   -1.032130735096   -0.021122102752
 C    1.721232524167   -0.007577712929   -0.009061280145
 O    2.409553196595   -1.031194934731   -0.037169218698
 C    2.251001705232    1.360811155805    0.019545088989
 C    3.743291598838    1.544669481267    0.014714279163
 H    4.004839227918    2.613097358135    0.037368447310
 H    4.183435912428    1.086349261845   -0.884393972283
 H    4.194296805547    1.046182995961    0.886651116076
 H   -0.652394823739    2.980529382322    0.071468716581
 K   -3.300972149780   -2.833918707923   -0.049542076906
