16

 N    0.007753386526    2.239993102637    0.052512766796
 C    1.378368798935    2.439467780478    0.048881132420
 H    1.700153095273    3.483212711354    0.070299948113
 C   -0.591961882903    0.986877943084    0.027982776140
 O   -1.809735914435    0.819935237017    0.028978856914
 N    0.333344132708   -0.049899666758    0.000326239151
 H   -0.061229575155   -0.988413976607   -0.020182634247
 C    1.739074511103    0.036139045560   -0.008121811640
 O    2.427395183531   -0.987478176242   -0.036229750193
 C    2.268843692168    1.404527914294    0.020484557494
 C    3.761133585774    1.588386239756    0.015653747668
 H    4.022681214854    2.656814116624    0.038307915815
 H    4.201277899364    1.130066020334   -0.883454503778
 H    4.212138792483    1.089899754450    0.887590584581
 H   -0.634552836803    3.024246140811    0.072408185086
 K   -3.358688842250   -2.975337189765   -0.052581145085
