16

 N    0.016674379994    2.261851481881    0.052982501048
 C    1.387289792403    2.461326159722    0.049350866672
 H    1.709074088741    3.505071090598    0.070769682365
 C   -0.583040889435    1.008736322328    0.028452510392
 O   -1.800814920967    0.841793616261    0.029448591166
 N    0.342265126176   -0.028041287514    0.000795973403
 H   -0.052308581687   -0.966555597363   -0.019712899995
 C    1.747995504571    0.057997424804   -0.007652077388
 O    2.436316176999   -0.965619796998   -0.035760015941
 C    2.277764685636    1.426386293538    0.020954291746
 C    3.770054579242    1.610244619000    0.016123481920
 H    4.031602208322    2.678672495868    0.038777650067
 H    4.210198892832    1.151924399578   -0.882984769526
 H    4.221059785951    1.111758133694    0.888060318833
 H   -0.625631843335    3.046104520055    0.072877919338
 K   -3.387547188485   -3.046046430686   -0.054100679174
