16

 N    0.025595373462    2.283709861126    0.053452235300
 C    1.396210785871    2.483184538967    0.049820600924
 H    1.717995082209    3.526929469843    0.071239416617
 C   -0.574119895967    1.030594701573    0.028922244644
 O   -1.791893927499    0.863651995506    0.029918325418
 N    0.351186119644   -0.006182908269    0.001265707655
 H   -0.043387588219   -0.944697218118   -0.019243165743
 C    1.756916498039    0.079855804049   -0.007182343136
 O    2.445237170467   -0.943761417753   -0.035290281689
 C    2.286685679104    1.448244672783    0.021424025998
 C    3.778975572710    1.632102998245    0.016593216172
 H    4.040523201790    2.700530875113    0.039247384319
 H    4.219119886300    1.173782778823   -0.882515035274
 H    4.229980779419    1.133616512939    0.888530053085
 H   -0.616710849867    3.067962899300    0.073347653590
 K   -3.416405534720   -3.116755671606   -0.055620213263
