16

 N    0.052358353865    2.349284998860    0.054861438056
 C    1.422973766274    2.548759676701    0.051229803680
 H    1.744758062612    3.592504607577    0.072648619373
 C   -0.547356915564    1.096169839307    0.030331447400
 O   -1.765130947096    0.929227133240    0.031327528174
 N    0.377949100047    0.059392229465    0.002674910411
 H   -0.016624607816   -0.879122080384   -0.017833962987
 C    1.783679478442    0.145430941783   -0.005773140380
 O    2.472000150870   -0.878186280019   -0.033881078933
 C    2.313448659507    1.513819810517    0.022833228754
 C    3.805738553113    1.697678135979    0.018002418928
 H    4.067286182193    2.766106012847    0.040656587075
 H    4.245882866703    1.239357916557   -0.881105832518
 H    4.256743759822    1.199191650673    0.889939255841
 H   -0.589947869464    3.133538037034    0.074756856346
 K   -3.502980573424   -3.328883394369   -0.060178815531
