16

 N    0.114805308141    2.502293653572    0.058149577821
 C    1.485420720550    2.701768331413    0.054517943445
 H    1.807205016888    3.745513262289    0.075936759138
 C   -0.484909961288    1.249178494019    0.033619587165
 O   -1.702683992820    1.082235787952    0.034615667939
 N    0.440396054323    0.212400884177    0.005963050176
 H    0.045822346460   -0.726113425672   -0.014545823222
 C    1.846126432718    0.298439596495   -0.002485000615
 O    2.534447105146   -0.725177625307   -0.030592939168
 C    2.375895613783    1.666828465229    0.026121368519
 C    3.868185507389    1.850686790691    0.021290558693
 H    4.129733136469    2.919114667559    0.043944726840
 H    4.308329820979    1.392366571269   -0.877817692753
 H    4.319190714098    1.352200305385    0.893227395606
 H   -0.527500915188    3.286546691746    0.078044996111
 K   -3.704988997069   -3.823848080814   -0.070815554157
