16

 N    0.132647295076    2.546010412061    0.059089046325
 C    1.503262707485    2.745485089902    0.055457411949
 H    1.825047003823    3.789230020778    0.076876227642
 C   -0.467067974353    1.292895252508    0.034559055669
 O   -1.684842005885    1.125952546441    0.035555136443
 N    0.458238041258    0.256117642666    0.006902518680
 H    0.063664333395   -0.682396667183   -0.013606354718
 C    1.863968419653    0.342156354984   -0.001545532111
 O    2.552289092081   -0.681460866818   -0.029653470664
 C    2.393737600718    1.710545223718    0.027060837023
 C    3.886027494324    1.894403549180    0.022230027197
 H    4.147575123404    2.962831426048    0.044884195344
 H    4.326171807914    1.436083329758   -0.876878224249
 H    4.337032701033    1.395917063874    0.894166864110
 H   -0.509658928253    3.330263450235    0.078984464615
 K   -3.762705689538   -3.965266562656   -0.073854622335
