16

 N    0.159410275480    2.611585549795    0.060498249081
 C    1.530025687889    2.811060227636    0.056866614705
 H    1.851809984227    3.854805158512    0.078285430398
 C   -0.440304993949    1.358470390242    0.035968258425
 O   -1.658079025481    1.191527684175    0.036964339199
 N    0.485001021662    0.321692780400    0.008311721436
 H    0.090427313799   -0.616821529449   -0.012197151962
 C    1.890731400057    0.407731492718   -0.000136329355
 O    2.579052072485   -0.615885729084   -0.028244267908
 C    2.420500581122    1.776120361452    0.028470039779
 C    3.912790474728    1.959978686914    0.023639229953
 H    4.174338103808    3.028406563782    0.046293398100
 H    4.352934788318    1.501658467492   -0.875469021493
 H    4.363795681437    1.461492201608    0.895576066866
 H   -0.482895947849    3.395838587969    0.080393667371
 K   -3.849280728243   -4.177394285418   -0.078413224603
