16

 N    0.195094249352    2.699019066773    0.062377186089
 C    1.565709661761    2.898493744614    0.058745551713
 H    1.887493958099    3.942238675490    0.080164367406
 C   -0.404621020077    1.445903907220    0.037847195433
 O   -1.622395051609    1.278961201153    0.038843276207
 N    0.520684995534    0.409126297378    0.010190658444
 H    0.126111287671   -0.529388012471   -0.010318214954
 C    1.926415373929    0.495165009696    0.001742607653
 O    2.614736046357   -0.528452212106   -0.026365330900
 C    2.456184554994    1.863553878430    0.030348976787
 C    3.948474448600    2.047412203892    0.025518166961
 H    4.210022077680    3.115840080760    0.048172335108
 H    4.388618762190    1.589091984470   -0.873590084485
 H    4.399479655309    1.548925718586    0.897455003874
 H   -0.447211973977    3.483272104947    0.082272604379
 K   -3.964714113183   -4.460231249102   -0.084491360961
