16

 N    0.204015242820    2.720877446018    0.062846920341
 C    1.574630655229    2.920352123859    0.059215285965
 H    1.896414951567    3.964097054735    0.080634101658
 C   -0.395700026609    1.467762286465    0.038316929685
 O   -1.613474058141    1.300819580398    0.039313010459
 N    0.529605989002    0.430984676623    0.010660392696
 H    0.135032281139   -0.507529633226   -0.009848480702
 C    1.935336367397    0.517023388941    0.002212341905
 O    2.623657039825   -0.506593832861   -0.025895596648
 C    2.465105548462    1.885412257675    0.030818711039
 C    3.957395442068    2.069270583137    0.025987901213
 H    4.218943071148    3.137698460005    0.048642069360
 H    4.397539755658    1.610950363715   -0.873120350233
 H    4.408400648777    1.570784097831    0.897924738126
 H   -0.438290980509    3.505130484192    0.082742338631
 K   -3.993572459418   -4.530940490022   -0.086010895050
