16

 N    0.212936236288    2.742735825263    0.063316654594
 C    1.583551648697    2.942210503104    0.059685020218
 H    1.905335945035    3.985955433980    0.081103835911
 C   -0.386779033141    1.489620665710    0.038786663938
 O   -1.604553064673    1.322677959643    0.039782744712
 N    0.538526982470    0.452843055868    0.011130126949
 H    0.143953274607   -0.485671253981   -0.009378746449
 C    1.944257360865    0.538881768186    0.002682076158
 O    2.632578033293   -0.484735453616   -0.025425862395
 C    2.474026541930    1.907270636920    0.031288445292
 C    3.966316435536    2.091128962382    0.026457635466
 H    4.227864064616    3.159556839250    0.049111803613
 H    4.406460749126    1.632808742960   -0.872650615980
 H    4.417321642245    1.592642477076    0.898394472379
 H   -0.429369987041    3.526988863437    0.083212072884
 K   -4.022430805652   -4.601649730943   -0.087530429139
