16

 N    0.221857229755    2.764594204507    0.063786388846
 C    1.592472642164    2.964068882348    0.060154754470
 H    1.914256938502    4.007813813224    0.081573570163
 C   -0.377858039674    1.511479044954    0.039256398190
 O   -1.595632071206    1.344536338887    0.040252478964
 N    0.547447975937    0.474701435112    0.011599861201
 H    0.152874268074   -0.463812874737   -0.008909012197
 C    1.953178354332    0.560740147430    0.003151810410
 O    2.641499026760   -0.462877074372   -0.024956128143
 C    2.482947535397    1.929129016164    0.031758179544
 C    3.975237429003    2.112987341626    0.026927369718
 H    4.236785058083    3.181415218494    0.049581537865
 H    4.415381742593    1.654667122204   -0.872180881728
 H    4.426242635712    1.614500856320    0.898864206631
 H   -0.420448993574    3.548847242681    0.083681807136
 K   -4.051289151887   -4.672358971864   -0.089049963229
