16

 N    0.230778223223    2.786452583752    0.064256123098
 C    1.601393635632    2.985927261593    0.060624488722
 H    1.923177931970    4.029672192469    0.082043304415
 C   -0.368937046206    1.533337424199    0.039726132442
 O   -1.586711077738    1.366394718132    0.040722213216
 N    0.556368969405    0.496559814357    0.012069595453
 H    0.161795261542   -0.441954495492   -0.008439277945
 C    1.962099347800    0.582598526675    0.003621544662
 O    2.650420020228   -0.441018695127   -0.024486393891
 C    2.491868528865    1.950987395409    0.032227913796
 C    3.984158422471    2.134845720871    0.027397103970
 H    4.245706051551    3.203273597739    0.050051272117
 H    4.424302736061    1.676525501449   -0.871711147476
 H    4.435163629180    1.636359235565    0.899333940883
 H   -0.411528000106    3.570705621926    0.084151541388
 K   -4.080147498122   -4.743068212785   -0.090569497318
