16

 N    0.257541203627    2.852027721486    0.065665325854
 C    1.628156616036    3.051502399327    0.062033691478
 H    1.949940912374    4.095247330203    0.083452507171
 C   -0.342174065802    1.598912561933    0.041135335198
 O   -1.559948097334    1.431969855866    0.042131415972
 N    0.583131949809    0.562134952091    0.013478798209
 H    0.188558241946   -0.376379357758   -0.007030075189
 C    1.988862328204    0.648173664409    0.005030747418
 O    2.677183000632   -0.375443557393   -0.023077191135
 C    2.518631509269    2.016562533143    0.033637116552
 C    4.010921402875    2.200420858605    0.028806306726
 H    4.272469031955    3.268848735473    0.051460474873
 H    4.451065716465    1.742100639183   -0.870301944720
 H    4.461926609584    1.701934373299    0.900743143639
 H   -0.384765019702    3.636280759660    0.085560744144
 K   -4.166722536827   -4.955195935547   -0.095128099586
