16

 N    0.266462197095    2.873886100730    0.066135060106
 C    1.637077609504    3.073360778571    0.062503425730
 H    1.958861905842    4.117105709447    0.083922241423
 C   -0.333253072334    1.620770941177    0.041605069450
 O   -1.551027103866    1.453828235110    0.042601150224
 N    0.592052943277    0.583993331335    0.013948532461
 H    0.197479235414   -0.354520978514   -0.006560340937
 C    1.997783321672    0.670032043653    0.005500481670
 O    2.686103994100   -0.353585178149   -0.022607456883
 C    2.527552502737    2.038420912387    0.034106850804
 C    4.019842396343    2.222279237849    0.029276040978
 H    4.281390025423    3.290707114717    0.051930209125
 H    4.459986709933    1.763959018427   -0.869832210468
 H    4.470847603052    1.723792752543    0.901212877891
 H   -0.375844026234    3.658139138904    0.086030478396
 K   -4.195580883062   -5.025905176468   -0.096647633675
