16

 N    0.275383190563    2.895744479975    0.066604794358
 C    1.645998602972    3.095219157816    0.062973159982
 H    1.967782899310    4.138964088692    0.084391975675
 C   -0.324332078866    1.642629320422    0.042074803702
 O   -1.542106110398    1.475686614355    0.043070884476
 N    0.600973936745    0.605851710580    0.014418266713
 H    0.206400228882   -0.332662599269   -0.006090606685
 C    2.006704315140    0.691890422898    0.005970215922
 O    2.695024987568   -0.331726798904   -0.022137722631
 C    2.536473496205    2.060279291632    0.034576585056
 C    4.028763389811    2.244137617094    0.029745775230
 H    4.290311018891    3.312565493962    0.052399943377
 H    4.468907703401    1.785817397672   -0.869362476216
 H    4.479768596520    1.745651131788    0.901682612143
 H   -0.366923032766    3.679997518149    0.086500212648
 K   -4.224439229297   -5.096614417389   -0.098167167765
