16

 N    0.293225177499    2.939461238464    0.067544262862
 C    1.663840589908    3.138935916305    0.063912628486
 H    1.985624886246    4.182680847181    0.085331444179
 C   -0.306490091930    1.686346078911    0.043014272206
 O   -1.524264123462    1.519403372844    0.044010352980
 N    0.618815923681    0.649568469069    0.015357735217
 H    0.224242215818   -0.288945840780   -0.005151138181
 C    2.024546302076    0.735607181387    0.006909684426
 O    2.712866974504   -0.288010040415   -0.021198254127
 C    2.554315483141    2.103996050121    0.035516053560
 C    4.046605376747    2.287854375583    0.030685243734
 H    4.308153005827    3.356282252451    0.053339411881
 H    4.486749690337    1.829534156161   -0.868423007712
 H    4.497610583456    1.789367890277    0.902622080647
 H   -0.349081045830    3.723714276638    0.087439681152
 K   -4.282155921766   -5.238032899230   -0.101206235943
