16

 N    0.302146170967    2.961319617709    0.068013997114
 C    1.672761583376    3.160794295550    0.064382362738
 H    1.994545879714    4.204539226426    0.085801178431
 C   -0.297569098462    1.708204458156    0.043484006458
 O   -1.515343129994    1.541261752089    0.044480087232
 N    0.627736917149    0.671426848314    0.015827469469
 H    0.233163209286   -0.267087461535   -0.004681403929
 C    2.033467295544    0.757465560632    0.007379418678
 O    2.721787967972   -0.266151661170   -0.020728519875
 C    2.563236476609    2.125854429366    0.035985787812
 C    4.055526370215    2.309712754828    0.031154977986
 H    4.317073999295    3.378140631696    0.053809146133
 H    4.495670683805    1.851392535406   -0.867953273460
 H    4.506531576924    1.811226269522    0.903091814899
 H   -0.340160052362    3.745572655883    0.087909415404
 K   -4.311014268001   -5.308742140151   -0.102725770033
