16

 N    0.311067164434    2.983177996953    0.068483731367
 C    1.681682576843    3.182652674794    0.064852096991
 H    2.003466873181    4.226397605670    0.086270912684
 C   -0.288648104995    1.730062837400    0.043953740711
 O   -1.506422136527    1.563120131333    0.044949821485
 N    0.636657910616    0.693285227558    0.016297203722
 H    0.242084202753   -0.245229082291   -0.004211669676
 C    2.042388289011    0.779323939876    0.007849152931
 O    2.730708961439   -0.244293281926   -0.020258785622
 C    2.572157470076    2.147712808610    0.036455522065
 C    4.064447363682    2.331571134072    0.031624712239
 H    4.325994992762    3.399999010940    0.054278880386
 H    4.504591677272    1.873250914650   -0.867483539207
 H    4.515452570391    1.833084648766    0.903561549152
 H   -0.331239058895    3.767431035127    0.088379149657
 K   -4.339872614236   -5.379451381072   -0.104245304122
