16

 N    0.337830144838    3.048753134687    0.069892934123
 C    1.708445557247    3.248227812528    0.066261299747
 H    2.030229853585    4.291972743404    0.087680115440
 C   -0.261885124591    1.795637975134    0.045362943467
 O   -1.479659156123    1.628695269067    0.046359024241
 N    0.663420891020    0.758860365292    0.017706406478
 H    0.268847183157   -0.179653944557   -0.002802466920
 C    2.069151269415    0.844899077610    0.009258355687
 O    2.757471941843   -0.178718144192   -0.018849582866
 C    2.598920450480    2.213287946344    0.037864724821
 C    4.091210344086    2.397146271806    0.033033914995
 H    4.352757973166    3.465574148674    0.055688083142
 H    4.531354657676    1.938826052384   -0.866074336451
 H    4.542215550795    1.898659786500    0.904970751908
 H   -0.304476078491    3.833006172861    0.089788352413
 K   -4.426447652941   -5.591579103834   -0.108803906390
