16

 N    0.346751138306    3.070611513932    0.070362668375
 C    1.717366550715    3.270086191773    0.066731033999
 H    2.039150847053    4.313831122649    0.088149849692
 C   -0.252964131123    1.817496354379    0.045832677719
 O   -1.470738162655    1.650553648312    0.046828758493
 N    0.672341884488    0.780718744537    0.018176140730
 H    0.277768176625   -0.157795565312   -0.002332732668
 C    2.078072262883    0.866757456855    0.009728089939
 O    2.766392935311   -0.156859764947   -0.018379848614
 C    2.607841443948    2.235146325589    0.038334459073
 C    4.100131337554    2.419004651051    0.033503649247
 H    4.361678966634    3.487432527919    0.056157817394
 H    4.540275651144    1.960684431629   -0.865604602199
 H    4.551136544263    1.920518165745    0.905440486160
 H   -0.295555085023    3.854864552106    0.090258086665
 K   -4.455305999176   -5.662288344755   -0.110323440479
