16

 N    0.364593125242    3.114328272421    0.071302136879
 C    1.735208537651    3.313802950262    0.067670502503
 H    2.056992833989    4.357547881138    0.089089318196
 C   -0.235122144187    1.861213112868    0.046772146223
 O   -1.452896175719    1.694270406801    0.047768226997
 N    0.690183871424    0.824435503026    0.019115609234
 H    0.295610163561   -0.114078806823   -0.001393264164
 C    2.095914249819    0.910474215344    0.010667558443
 O    2.784234922247   -0.113143006458   -0.017440380110
 C    2.625683430884    2.278863084078    0.039273927577
 C    4.117973324490    2.462721409540    0.034443117751
 H    4.379520953570    3.531149286408    0.057097285898
 H    4.558117638080    2.004401190118   -0.864665133695
 H    4.568978531199    1.964234924234    0.906379954664
 H   -0.277713098087    3.898581310595    0.091197555169
 K   -4.513022691646   -5.803706826597   -0.113362508658
