16

 N    0.400277099113    3.201761789399    0.073181073887
 C    1.770892511522    3.401236467240    0.069549439511
 H    2.092676807860    4.444981398116    0.090968255204
 C   -0.199438170316    1.948646629846    0.048651083231
 O   -1.417212201848    1.781703923779    0.049647164005
 N    0.725867845295    0.911869020004    0.020994546242
 H    0.331294137432   -0.026645289845    0.000485672844
 C    2.131598223690    0.997907732322    0.012546495451
 O    2.819918896118   -0.025709489480   -0.015561443102
 C    2.661367404755    2.366296601056    0.041152864585
 C    4.153657298361    2.550154926518    0.036322054759
 H    4.415204927441    3.618582803386    0.058976222906
 H    4.593801611951    2.091834707096   -0.862786196687
 H    4.604662505070    2.051668441212    0.908258891672
 H   -0.242029124216    3.986014827573    0.093076492177
 K   -4.628456076585   -6.086543790280   -0.119440645015
