16

 N    0.418119086049    3.245478547889    0.074120542392
 C    1.788734498458    3.444953225730    0.070488908016
 H    2.110518794796    4.488698156606    0.091907723709
 C   -0.181596183380    1.992363388336    0.049590551736
 O   -1.399370214912    1.825420682269    0.050586632510
 N    0.743709832231    0.955585778494    0.021934014747
 H    0.349136124368    0.017071468645    0.001425141349
 C    2.149440210626    1.041624490812    0.013485963956
 O    2.837760883054    0.018007269010   -0.014621974597
 C    2.679209391691    2.410013359546    0.042092333090
 C    4.171499285297    2.593871685008    0.037261523264
 H    4.433046914377    3.662299561876    0.059915691411
 H    4.611643598887    2.135551465586   -0.861846728182
 H    4.622504492006    2.095385199702    0.909198360177
 H   -0.224187137280    4.029731586063    0.094015960682
 K   -4.686172769055   -6.227962272122   -0.122479713194
