16

 N    0.435961072985    3.289195306378    0.075060010896
 C    1.806576485394    3.488669984219    0.071428376520
 H    2.128360781732    4.532414915095    0.092847192213
 C   -0.163754196444    2.036080146825    0.050530020240
 O   -1.381528227976    1.869137440758    0.051526101014
 N    0.761551819167    0.999302536983    0.022873483251
 H    0.366978111304    0.060788227134    0.002364609853
 C    2.167282197562    1.085341249301    0.014425432460
 O    2.855602869990    0.061724027499   -0.013682506093
 C    2.697051378627    2.453730118035    0.043031801594
 C    4.189341272233    2.637588443497    0.038200991768
 H    4.450888901313    3.706016320365    0.060855159915
 H    4.629485585823    2.179268224075   -0.860907259678
 H    4.640346478942    2.139101958191    0.910137828681
 H   -0.206345150344    4.073448344552    0.094955429186
 K   -4.743889461525   -6.369380753963   -0.125518781373
