16

 N    0.498408027260    3.442203961090    0.078348150660
 C    1.869023439669    3.641678638931    0.074716516284
 H    2.190807736007    4.685423569807    0.096135331977
 C   -0.101307242169    2.189088801537    0.053818160004
 O   -1.319081273701    2.022146095470    0.054814240778
 N    0.823998773442    1.152311191695    0.026161623015
 H    0.429425065579    0.213796881846    0.005652749617
 C    2.229729151837    1.238349904013    0.017713572224
 O    2.918049824265    0.214732682211   -0.010394366329
 C    2.759498332902    2.606738772747    0.046319941358
 C    4.251788226508    2.790597098209    0.041489131532
 H    4.513335855588    3.859024975077    0.064143299679
 H    4.691932540098    2.332276878787   -0.857619119914
 H    4.702793433217    2.292110612903    0.913425968445
 H   -0.143898196069    4.226456999264    0.098243568950
 K   -4.945897885169   -6.864345440409   -0.136155519998
