13

 C    1.793164741368    1.268938776792    0.000000000000
 H    1.326544741368    2.261105776792    0.000000000000
 H    2.430313741368    1.164521776792    0.892506000000
 H    2.430313741368    1.164521776792   -0.892506000000
 C    0.694989741368    0.217853776792    0.000000000000
 O   -0.511173258632    0.495907776792    0.000000000000
 N    1.125918741368   -1.082295223208    0.000000000000
 H    2.118095741368   -1.276196223208    0.000000000000
 C    0.167583741368   -2.180823223208    0.000000000000
 H   -0.476481258632   -2.132344223208    0.890708000000
 H   -0.476481258632   -2.132344223208   -0.890708000000
 H    0.720809741368   -3.129248223208    0.000000000000
NA   -2.070281633204    0.855325467422    0.000000000000
