13

 C    1.839815351062    1.258184518348    0.000000000000
 H    1.373195351062    2.250351518348    0.000000000000
 H    2.476964351062    1.153767518348    0.892506000000
 H    2.476964351062    1.153767518348   -0.892506000000
 C    0.741640351062    0.207099518348    0.000000000000
 O   -0.464522648938    0.485153518348    0.000000000000
 N    1.172569351062   -1.093049481652    0.000000000000
 H    2.164746351062   -1.286950481652    0.000000000000
 C    0.214234351062   -2.191577481652    0.000000000000
 H   -0.429830648938   -2.143098481652    0.890708000000
 H   -0.429830648938   -2.143098481652   -0.890708000000
 H    0.767460351062   -3.140002481652    0.000000000000
NA   -2.218519570332    0.889498420307    0.000000000000
