13

 C    3.752490348510    0.817259922136    0.000000000000
 H    3.285870348510    1.809426922136    0.000000000000
 H    4.389639348510    0.712842922136    0.892506000000
 H    4.389639348510    0.712842922136   -0.892506000000
 C    2.654315348510   -0.233825077864    0.000000000000
 O    1.448152348510    0.044228922136    0.000000000000
 N    3.085244348510   -1.533974077864    0.000000000000
 H    4.077421348510   -1.727875077864    0.000000000000
 C    2.126909348510   -2.632502077864    0.000000000000
 H    1.482844348510   -2.584023077864    0.890708000000
 H    1.482844348510   -2.584023077864   -0.890708000000
 H    2.680135348510   -3.580927077864    0.000000000000
NA   -8.296274992568    2.290589488574    0.000000000000
