13

 C    1.886465960756    1.247430259904    0.000000000000
 H    1.419845960756    2.239597259904    0.000000000000
 H    2.523614960756    1.143013259904    0.892506000000
 H    2.523614960756    1.143013259904   -0.892506000000
 C    0.788290960756    0.196345259904    0.000000000000
 O   -0.417872039244    0.474399259904    0.000000000000
 N    1.219219960756   -1.103803740096    0.000000000000
 H    2.211396960756   -1.297704740096    0.000000000000
 C    0.260884960756   -2.202331740096    0.000000000000
 H   -0.383180039244   -2.153852740096    0.890708000000
 H   -0.383180039244   -2.153852740096   -0.890708000000
 H    0.814110960756   -3.150756740096    0.000000000000
NA   -2.366757507460    0.923671373191    0.000000000000
