13

 C    1.933116570450    1.236676001460    0.000000000000
 H    1.466496570450    2.228843001460    0.000000000000
 H    2.570265570450    1.132259001460    0.892506000000
 H    2.570265570450    1.132259001460   -0.892506000000
 C    0.834941570450    0.185591001460    0.000000000000
 O   -0.371221429550    0.463645001460    0.000000000000
 N    1.265870570450   -1.114557998540    0.000000000000
 H    2.258047570450   -1.308458998540    0.000000000000
 C    0.307535570450   -2.213085998540    0.000000000000
 H   -0.336529429550   -2.164606998540    0.890708000000
 H   -0.336529429550   -2.164606998540   -0.890708000000
 H    0.860761570450   -3.161510998540    0.000000000000
NA   -2.514995444587    0.957844326076    0.000000000000
