13

 C    2.049743094685    1.209790355349    0.000000000000
 H    1.583123094685    2.201957355349    0.000000000000
 H    2.686892094685    1.105373355349    0.892506000000
 H    2.686892094685    1.105373355349   -0.892506000000
 C    0.951568094685    0.158705355349    0.000000000000
 O   -0.254594905315    0.436759355349    0.000000000000
 N    1.382497094685   -1.141443644651    0.000000000000
 H    2.374674094685   -1.335344644651    0.000000000000
 C    0.424162094685   -2.239971644651    0.000000000000
 H   -0.219902905315   -2.191492644651    0.890708000000
 H   -0.219902905315   -2.191492644651   -0.890708000000
 H    0.977388094685   -3.188396644651    0.000000000000
NA   -2.885590287407    1.043276708287    0.000000000000
