13

 C    2.166369618919    1.182904709239    0.000000000000
 H    1.699749618919    2.175071709239    0.000000000000
 H    2.803518618919    1.078487709239    0.892506000000
 H    2.803518618919    1.078487709239   -0.892506000000
 C    1.068194618919    0.131819709239    0.000000000000
 O   -0.137968381081    0.409873709239    0.000000000000
 N    1.499123618919   -1.168329290761    0.000000000000
 H    2.491300618919   -1.362230290761    0.000000000000
 C    0.540788618919   -2.266857290761    0.000000000000
 H   -0.103276381081   -2.218378290761    0.890708000000
 H   -0.103276381081   -2.218378290761   -0.890708000000
 H    1.094014618919   -3.215282290761    0.000000000000
NA   -3.256185130226    1.128709090499    0.000000000000
