13

 C    2.259670838307    1.161396192350    0.000000000000
 H    1.793050838307    2.153563192350    0.000000000000
 H    2.896819838307    1.056979192350    0.892506000000
 H    2.896819838307    1.056979192350   -0.892506000000
 C    1.161495838307    0.110311192350    0.000000000000
 O   -0.044667161693    0.388365192350    0.000000000000
 N    1.592424838307   -1.189837807650    0.000000000000
 H    2.584601838307   -1.383738807650    0.000000000000
 C    0.634089838307   -2.288365807650    0.000000000000
 H   -0.009975161693   -2.239886807650    0.890708000000
 H   -0.009975161693   -2.239886807650   -0.890708000000
 H    1.187315838307   -3.236790807650    0.000000000000
NA   -3.552661004481    1.197054996268    0.000000000000
