13

 C    2.282996143154    1.156019063128    0.000000000000
 H    1.816376143154    2.148186063128    0.000000000000
 H    2.920145143154    1.051602063128    0.892506000000
 H    2.920145143154    1.051602063128   -0.892506000000
 C    1.184821143154    0.104934063128    0.000000000000
 O   -0.021341856846    0.382988063128    0.000000000000
 N    1.615750143154   -1.195214936872    0.000000000000
 H    2.607927143154   -1.389115936872    0.000000000000
 C    0.657415143154   -2.293742936872    0.000000000000
 H    0.013350143154   -2.245263936872    0.890708000000
 H    0.013350143154   -2.245263936872   -0.890708000000
 H    1.210641143154   -3.242167936872    0.000000000000
NA   -3.626779973045    1.214141472710    0.000000000000
