13

 C    2.352972057695    1.139887675462    0.000000000000
 H    1.886352057695    2.132054675462    0.000000000000
 H    2.990121057695    1.035470675462    0.892506000000
 H    2.990121057695    1.035470675462   -0.892506000000
 C    1.254797057695    0.088802675462    0.000000000000
 O    0.048634057695    0.366856675462    0.000000000000
 N    1.685726057695   -1.211346324538    0.000000000000
 H    2.677903057695   -1.405247324538    0.000000000000
 C    0.727391057695   -2.309874324538    0.000000000000
 H    0.083326057695   -2.261395324538    0.890708000000
 H    0.083326057695   -2.261395324538   -0.890708000000
 H    1.280617057695   -3.258299324538    0.000000000000
NA   -3.849136878737    1.265400902037    0.000000000000
