13

 C    2.376297362542    1.134510546240    0.000000000000
 H    1.909677362542    2.126677546240    0.000000000000
 H    3.013446362542    1.030093546240    0.892506000000
 H    3.013446362542    1.030093546240   -0.892506000000
 C    1.278122362542    0.083425546240    0.000000000000
 O    0.071959362542    0.361479546240    0.000000000000
 N    1.709051362542   -1.216723453760    0.000000000000
 H    2.701228362542   -1.410624453760    0.000000000000
 C    0.750716362542   -2.315251453760    0.000000000000
 H    0.106651362542   -2.266772453760    0.890708000000
 H    0.106651362542   -2.266772453760   -0.890708000000
 H    1.303942362542   -3.263676453760    0.000000000000
NA   -3.923255847301    1.282487378479    0.000000000000
