13

 C    2.422947972235    1.123756287796    0.000000000000
 H    1.956327972235    2.115923287796    0.000000000000
 H    3.060096972235    1.019339287796    0.892506000000
 H    3.060096972235    1.019339287796   -0.892506000000
 C    1.324772972235    0.072671287796    0.000000000000
 O    0.118609972235    0.350725287796    0.000000000000
 N    1.755701972235   -1.227477712204    0.000000000000
 H    2.747878972235   -1.421378712204    0.000000000000
 C    0.797366972235   -2.326005712204    0.000000000000
 H    0.153301972235   -2.277526712204    0.890708000000
 H    0.153301972235   -2.277526712204   -0.890708000000
 H    1.350592972235   -3.274430712204    0.000000000000
NA   -4.071493784428    1.316660331364    0.000000000000
