13

 C    2.446273277082    1.118379158574    0.000000000000
 H    1.979653277082    2.110546158574    0.000000000000
 H    3.083422277082    1.013962158574    0.892506000000
 H    3.083422277082    1.013962158574   -0.892506000000
 C    1.348098277082    0.067294158574    0.000000000000
 O    0.141935277082    0.345348158574    0.000000000000
 N    1.779027277082   -1.232854841426    0.000000000000
 H    2.771204277082   -1.426755841426    0.000000000000
 C    0.820692277082   -2.331382841426    0.000000000000
 H    0.176627277082   -2.282903841426    0.890708000000
 H    0.176627277082   -2.282903841426   -0.890708000000
 H    1.373918277082   -3.279807841426    0.000000000000
NA   -4.145612752992    1.333746807806    0.000000000000
