13

 C    2.492923886776    1.107624900129    0.000000000000
 H    2.026303886776    2.099791900129    0.000000000000
 H    3.130072886776    1.003207900129    0.892506000000
 H    3.130072886776    1.003207900129   -0.892506000000
 C    1.394748886776    0.056539900129    0.000000000000
 O    0.188585886776    0.334593900129    0.000000000000
 N    1.825677886776   -1.243609099871    0.000000000000
 H    2.817854886776   -1.437510099871    0.000000000000
 C    0.867342886776   -2.342137099871    0.000000000000
 H    0.223277886776   -2.293658099871    0.890708000000
 H    0.223277886776   -2.293658099871   -0.890708000000
 H    1.420568886776   -3.290562099871    0.000000000000
NA   -4.293850690120    1.367919760691    0.000000000000
