13

 C    2.539574496470    1.096870641685    0.000000000000
 H    2.072954496470    2.089037641685    0.000000000000
 H    3.176723496470    0.992453641685    0.892506000000
 H    3.176723496470    0.992453641685   -0.892506000000
 C    1.441399496470    0.045785641685    0.000000000000
 O    0.235236496470    0.323839641685    0.000000000000
 N    1.872328496470   -1.254363358315    0.000000000000
 H    2.864505496470   -1.448264358315    0.000000000000
 C    0.913993496470   -2.352891358315    0.000000000000
 H    0.269928496470   -2.304412358315    0.890708000000
 H    0.269928496470   -2.304412358315   -0.890708000000
 H    1.467219496470   -3.301316358315    0.000000000000
NA   -4.442088627248    1.402092713575    0.000000000000
