13

 C    2.562899801317    1.091493512463    0.000000000000
 H    2.096279801317    2.083660512463    0.000000000000
 H    3.200048801317    0.987076512463    0.892506000000
 H    3.200048801317    0.987076512463   -0.892506000000
 C    1.464724801317    0.040408512463    0.000000000000
 O    0.258561801317    0.318462512463    0.000000000000
 N    1.895653801317   -1.259740487537    0.000000000000
 H    2.887830801317   -1.453641487537    0.000000000000
 C    0.937318801317   -2.358268487537    0.000000000000
 H    0.293253801317   -2.309789487537    0.890708000000
 H    0.293253801317   -2.309789487537   -0.890708000000
 H    1.490544801317   -3.306693487537    0.000000000000
NA   -4.516207595811    1.419179190018    0.000000000000
