13

 C    2.586225106164    1.086116383241    0.000000000000
 H    2.119605106164    2.078283383241    0.000000000000
 H    3.223374106164    0.981699383241    0.892506000000
 H    3.223374106164    0.981699383241   -0.892506000000
 C    1.488050106164    0.035031383241    0.000000000000
 O    0.281887106164    0.313085383241    0.000000000000
 N    1.918979106164   -1.265117616759    0.000000000000
 H    2.911156106164   -1.459018616759    0.000000000000
 C    0.960644106164   -2.363645616759    0.000000000000
 H    0.316579106164   -2.315166616759    0.890708000000
 H    0.316579106164   -2.315166616759   -0.890708000000
 H    1.513870106164   -3.312070616759    0.000000000000
NA   -4.590326564375    1.436265666460    0.000000000000
