13

 C    2.609550411011    1.080739254019    0.000000000000
 H    2.142930411011    2.072906254019    0.000000000000
 H    3.246699411011    0.976322254019    0.892506000000
 H    3.246699411011    0.976322254019   -0.892506000000
 C    1.511375411011    0.029654254019    0.000000000000
 O    0.305212411011    0.307708254019    0.000000000000
 N    1.942304411011   -1.270494745981    0.000000000000
 H    2.934481411011   -1.464395745981    0.000000000000
 C    0.983969411011   -2.369022745981    0.000000000000
 H    0.339904411011   -2.320543745981    0.890708000000
 H    0.339904411011   -2.320543745981   -0.890708000000
 H    1.537195411011   -3.317447745981    0.000000000000
NA   -4.664445532939    1.453352142902    0.000000000000
