13

 C    2.702851630399    1.059230737131    0.000000000000
 H    2.236231630399    2.051397737131    0.000000000000
 H    3.340000630399    0.954813737131    0.892506000000
 H    3.340000630399    0.954813737131   -0.892506000000
 C    1.604676630399    0.008145737131    0.000000000000
 O    0.398513630399    0.286199737131    0.000000000000
 N    2.035605630399   -1.292003262869    0.000000000000
 H    3.027782630399   -1.485904262869    0.000000000000
 C    1.077270630399   -2.390531262869    0.000000000000
 H    0.433205630399   -2.342052262869    0.890708000000
 H    0.433205630399   -2.342052262869   -0.890708000000
 H    1.630496630399   -3.338956262869    0.000000000000
NA   -4.960921407195    1.521698048671    0.000000000000
