13

 C    2.749502240092    1.048476478686    0.000000000000
 H    2.282882240092    2.040643478686    0.000000000000
 H    3.386651240092    0.944059478686    0.892506000000
 H    3.386651240092    0.944059478686   -0.892506000000
 C    1.651327240092   -0.002608521314    0.000000000000
 O    0.445164240092    0.275445478686    0.000000000000
 N    2.082256240092   -1.302757521314    0.000000000000
 H    3.074433240092   -1.496658521314    0.000000000000
 C    1.123921240092   -2.401285521314    0.000000000000
 H    0.479856240092   -2.352806521314    0.890708000000
 H    0.479856240092   -2.352806521314   -0.890708000000
 H    1.677147240092   -3.349710521314    0.000000000000
NA   -5.109159344322    1.555871001556    0.000000000000
