13

 C    2.866128764327    1.021590832576    0.000000000000
 H    2.399508764327    2.013757832576    0.000000000000
 H    3.503277764327    0.917173832576    0.892506000000
 H    3.503277764327    0.917173832576   -0.892506000000
 C    1.767953764327   -0.029494167424    0.000000000000
 O    0.561790764327    0.248559832576    0.000000000000
 N    2.198882764327   -1.329643167424    0.000000000000
 H    3.191059764327   -1.523544167424    0.000000000000
 C    1.240547764327   -2.428171167424    0.000000000000
 H    0.596482764327   -2.379692167424    0.890708000000
 H    0.596482764327   -2.379692167424   -0.890708000000
 H    1.793773764327   -3.376596167424    0.000000000000
NA   -5.479754187142    1.641303383767    0.000000000000
