13

 C    2.889454069174    1.016213703354    0.000000000000
 H    2.422834069174    2.008380703354    0.000000000000
 H    3.526603069174    0.911796703354    0.892506000000
 H    3.526603069174    0.911796703354   -0.892506000000
 C    1.791279069174   -0.034871296646    0.000000000000
 O    0.585116069174    0.243182703354    0.000000000000
 N    2.222208069174   -1.335020296646    0.000000000000
 H    3.214385069174   -1.528921296646    0.000000000000
 C    1.263873069174   -2.433548296646    0.000000000000
 H    0.619808069174   -2.385069296646    0.890708000000
 H    0.619808069174   -2.385069296646   -0.890708000000
 H    1.817099069174   -3.381973296646    0.000000000000
NA   -5.553873155705    1.658389860210    0.000000000000
