13

 C    3.029405898256    0.983950928021    0.000000000000
 H    2.562785898256    1.976117928021    0.000000000000
 H    3.666554898256    0.879533928021    0.892506000000
 H    3.666554898256    0.879533928021   -0.892506000000
 C    1.931230898256   -0.067134071979    0.000000000000
 O    0.725067898256    0.210919928021    0.000000000000
 N    2.362159898256   -1.367283071979    0.000000000000
 H    3.354336898256   -1.561184071979    0.000000000000
 C    1.403824898256   -2.465811071979    0.000000000000
 H    0.759759898256   -2.417332071979    0.890708000000
 H    0.759759898256   -2.417332071979   -0.890708000000
 H    1.957050898256   -3.414236071979    0.000000000000
NA   -5.998586967088    1.760908718863    0.000000000000
