13

 C    3.052731203102    0.978573798799    0.000000000000
 H    2.586111203102    1.970740798799    0.000000000000
 H    3.689880203102    0.874156798799    0.892506000000
 H    3.689880203102    0.874156798799   -0.892506000000
 C    1.954556203102   -0.072511201201    0.000000000000
 O    0.748393203102    0.205542798799    0.000000000000
 N    2.385485203102   -1.372660201201    0.000000000000
 H    3.377662203102   -1.566561201201    0.000000000000
 C    1.427150203102   -2.471188201201    0.000000000000
 H    0.783085203102   -2.422709201201    0.890708000000
 H    0.783085203102   -2.422709201201   -0.890708000000
 H    1.980376203102   -3.419613201201    0.000000000000
NA   -6.072705935652    1.777995195306    0.000000000000
