13

 C    3.122707117643    0.962442411133    0.000000000000
 H    2.656087117643    1.954609411133    0.000000000000
 H    3.759856117643    0.858025411133    0.892506000000
 H    3.759856117643    0.858025411133   -0.892506000000
 C    2.024532117643   -0.088642588867    0.000000000000
 O    0.818369117643    0.189411411133    0.000000000000
 N    2.455461117643   -1.388791588867    0.000000000000
 H    3.447638117643   -1.582692588867    0.000000000000
 C    1.497126117643   -2.487319588867    0.000000000000
 H    0.853061117643   -2.438840588867    0.890708000000
 H    0.853061117643   -2.438840588867   -0.890708000000
 H    2.050352117643   -3.435744588867    0.000000000000
NA   -6.295062841344    1.829254624632    0.000000000000
