13

 C    3.216008337031    0.940933894245    0.000000000000
 H    2.749388337031    1.933100894245    0.000000000000
 H    3.853157337031    0.836516894245    0.892506000000
 H    3.853157337031    0.836516894245   -0.892506000000
 C    2.117833337031   -0.110151105755    0.000000000000
 O    0.911670337031    0.167902894245    0.000000000000
 N    2.548762337031   -1.410300105755    0.000000000000
 H    3.540939337031   -1.604201105755    0.000000000000
 C    1.590427337031   -2.508828105755    0.000000000000
 H    0.946362337031   -2.460349105755    0.890708000000
 H    0.946362337031   -2.460349105755   -0.890708000000
 H    2.143653337031   -3.457253105755    0.000000000000
NA   -6.591538715599    1.897600530402    0.000000000000
