13

 C    3.239333641878    0.935556765022    0.000000000000
 H    2.772713641878    1.927723765022    0.000000000000
 H    3.876482641878    0.831139765022    0.892506000000
 H    3.876482641878    0.831139765022   -0.892506000000
 C    2.141158641878   -0.115528234978    0.000000000000
 O    0.934995641878    0.162525765022    0.000000000000
 N    2.572087641878   -1.415677234978    0.000000000000
 H    3.564264641878   -1.609578234978    0.000000000000
 C    1.613752641878   -2.514205234978    0.000000000000
 H    0.969687641878   -2.465726234978    0.890708000000
 H    0.969687641878   -2.465726234978   -0.890708000000
 H    2.166978641878   -3.462630234978    0.000000000000
NA   -6.665657684163    1.914687006844    0.000000000000
