13

 C    3.262658946725    0.930179635800    0.000000000000
 H    2.796038946725    1.922346635800    0.000000000000
 H    3.899807946725    0.825762635800    0.892506000000
 H    3.899807946725    0.825762635800   -0.892506000000
 C    2.164483946725   -0.120905364200    0.000000000000
 O    0.958320946725    0.157148635800    0.000000000000
 N    2.595412946725   -1.421054364200    0.000000000000
 H    3.587589946725   -1.614955364200    0.000000000000
 C    1.637077946725   -2.519582364200    0.000000000000
 H    0.993012946725   -2.471103364200    0.890708000000
 H    0.993012946725   -2.471103364200   -0.890708000000
 H    2.190303946725   -3.468007364200    0.000000000000
NA   -6.739776652727    1.931773483286    0.000000000000
