13

 C    3.309309556419    0.919425377356    0.000000000000
 H    2.842689556419    1.911592377356    0.000000000000
 H    3.946458556419    0.815008377356    0.892506000000
 H    3.946458556419    0.815008377356   -0.892506000000
 C    2.211134556419   -0.131659622644    0.000000000000
 O    1.004971556419    0.146394377356    0.000000000000
 N    2.642063556419   -1.431808622644    0.000000000000
 H    3.634240556419   -1.625709622644    0.000000000000
 C    1.683728556419   -2.530336622644    0.000000000000
 H    1.039663556419   -2.481857622644    0.890708000000
 H    1.039663556419   -2.481857622644   -0.890708000000
 H    2.236954556419   -3.478761622644    0.000000000000
NA   -6.888014589855    1.965946436171    0.000000000000
