13

 C    3.355960166113    0.908671118912    0.000000000000
 H    2.889340166113    1.900838118912    0.000000000000
 H    3.993109166113    0.804254118912    0.892506000000
 H    3.993109166113    0.804254118912   -0.892506000000
 C    2.257785166113   -0.142413881088    0.000000000000
 O    1.051622166113    0.135640118912    0.000000000000
 N    2.688714166113   -1.442562881088    0.000000000000
 H    3.680891166113   -1.636463881088    0.000000000000
 C    1.730379166113   -2.541090881088    0.000000000000
 H    1.086314166113   -2.492611881088    0.890708000000
 H    1.086314166113   -2.492611881088   -0.890708000000
 H    2.283605166113   -3.489515881088    0.000000000000
NA   -7.036252526982    2.000119389055    0.000000000000
