13

 C    3.379285470959    0.903293989690    0.000000000000
 H    2.912665470959    1.895460989690    0.000000000000
 H    4.016434470959    0.798876989690    0.892506000000
 H    4.016434470959    0.798876989690   -0.892506000000
 C    2.281110470959   -0.147791010310    0.000000000000
 O    1.074947470959    0.130262989690    0.000000000000
 N    2.712039470959   -1.447940010310    0.000000000000
 H    3.704216470959   -1.641841010310    0.000000000000
 C    1.753704470959   -2.546468010310    0.000000000000
 H    1.109639470959   -2.497989010310    0.890708000000
 H    1.109639470959   -2.497989010310   -0.890708000000
 H    2.306930470959   -3.494893010310    0.000000000000
NA   -7.110371495546    2.017205865498    0.000000000000
