13

 C    3.425936080653    0.892539731246    0.000000000000
 H    2.959316080653    1.884706731246    0.000000000000
 H    4.063085080653    0.788122731246    0.892506000000
 H    4.063085080653    0.788122731246   -0.892506000000
 C    2.327761080653   -0.158545268754    0.000000000000
 O    1.121598080653    0.119508731246    0.000000000000
 N    2.758690080653   -1.458694268754    0.000000000000
 H    3.750867080653   -1.652595268754    0.000000000000
 C    1.800355080653   -2.557222268754    0.000000000000
 H    1.156290080653   -2.508743268754    0.890708000000
 H    1.156290080653   -2.508743268754   -0.890708000000
 H    2.353581080653   -3.505647268754    0.000000000000
NA   -7.258609432674    2.051378818382    0.000000000000
