13

 C    3.449261385500    0.887162602024    0.000000000000
 H    2.982641385500    1.879329602024    0.000000000000
 H    4.086410385500    0.782745602024    0.892506000000
 H    4.086410385500    0.782745602024   -0.892506000000
 C    2.351086385500   -0.163922397976    0.000000000000
 O    1.144923385500    0.114131602024    0.000000000000
 N    2.782015385500   -1.464071397976    0.000000000000
 H    3.774192385500   -1.657972397976    0.000000000000
 C    1.823680385500   -2.562599397976    0.000000000000
 H    1.179615385500   -2.514120397976    0.890708000000
 H    1.179615385500   -2.514120397976   -0.890708000000
 H    2.376906385500   -3.511024397976    0.000000000000
NA   -7.332728401238    2.068465294824    0.000000000000
