13

 C    3.495911995194    0.876408343579    0.000000000000
 H    3.029291995194    1.868575343579    0.000000000000
 H    4.133060995194    0.771991343579    0.892506000000
 H    4.133060995194    0.771991343579   -0.892506000000
 C    2.397736995194   -0.174676656421    0.000000000000
 O    1.191573995194    0.103377343579    0.000000000000
 N    2.828665995194   -1.474825656421    0.000000000000
 H    3.820842995194   -1.668726656421    0.000000000000
 C    1.870330995194   -2.573353656421    0.000000000000
 H    1.226265995194   -2.524874656421    0.890708000000
 H    1.226265995194   -2.524874656421   -0.890708000000
 H    2.423556995194   -3.521778656421    0.000000000000
NA   -7.480966338366    2.102638247709    0.000000000000
