13

 C    3.542562604888    0.865654085135    0.000000000000
 H    3.075942604888    1.857821085135    0.000000000000
 H    4.179711604888    0.761237085135    0.892506000000
 H    4.179711604888    0.761237085135   -0.892506000000
 C    2.444387604888   -0.185430914865    0.000000000000
 O    1.238224604888    0.092623085135    0.000000000000
 N    2.875316604888   -1.485579914865    0.000000000000
 H    3.867493604888   -1.679480914865    0.000000000000
 C    1.916981604888   -2.584107914865    0.000000000000
 H    1.272916604888   -2.535628914865    0.890708000000
 H    1.272916604888   -2.535628914865   -0.890708000000
 H    2.470207604888   -3.532532914865    0.000000000000
NA   -7.629204275493    2.136811200594    0.000000000000
