13

 C    3.659189129123    0.838768439025    0.000000000000
 H    3.192569129123    1.830935439025    0.000000000000
 H    4.296338129123    0.734351439025    0.892506000000
 H    4.296338129123    0.734351439025   -0.892506000000
 C    2.561014129123   -0.212316560975    0.000000000000
 O    1.354851129123    0.065737439025    0.000000000000
 N    2.991943129123   -1.512465560975    0.000000000000
 H    3.984120129123   -1.706366560975    0.000000000000
 C    2.033608129123   -2.610993560975    0.000000000000
 H    1.389543129123   -2.562514560975    0.890708000000
 H    1.389543129123   -2.562514560975   -0.890708000000
 H    2.586834129123   -3.559418560975    0.000000000000
NA   -7.999799118313    2.222243582805    0.000000000000
