13

 N   -2.568891281842    1.253833115929    0.000885804889
 C   -1.395151698759    1.981205307439    0.000573325719
 H   -1.512868558822    3.066523766483    0.000457478160
 C   -2.614667254922   -0.139378675938    0.000500750320
 O   -3.666255423478   -0.773481989779    0.000844117424
 N   -1.354226713781   -0.722848732070    0.000917653642
 H   -1.344410916658   -1.741133843936    0.000890349547
 C   -0.092972424548   -0.086793245107    0.000934748478
 O    0.940720503520   -0.756057079523    0.000189082814
 C   -0.174451216308    1.373753816283    0.000434851031
 H    0.748948921994    1.950814075149    0.000094174254
 H   -3.472628457790    1.713487237289    0.000684153289
RB    1.831099683189   -0.300838659063   -0.000862622400
