13

 N   -2.760838189073    1.155697658680    0.001112530275
 C   -1.587098605990    1.883069850190    0.000800051105
 H   -1.704815466053    2.968388309234    0.000684203546
 C   -2.806614162153   -0.237514133187    0.000727475706
 O   -3.858202330709   -0.871617447028    0.001070842810
 N   -1.546173621012   -0.820984189319    0.001144379028
 H   -1.536357823889   -1.839269301185    0.001117074933
 C   -0.284919331779   -0.184928702356    0.001161473864
 O    0.748773596289   -0.854192536772    0.000415808200
 C   -0.366398123539    1.275618359034    0.000661576417
 H    0.557002014763    1.852678617900    0.000320899640
 H   -3.664575365021    1.615351780040    0.000910878675
RB    2.084342365794   -0.171364906082   -0.001161749622
