13

 N   -2.799227570519    1.136070567230    0.001157875352
 C   -1.625487987436    1.863442758740    0.000845396182
 H   -1.743204847499    2.948761217784    0.000729548623
 C   -2.845003543599   -0.257141224637    0.000772820783
 O   -3.896591712155   -0.891244538478    0.001116187887
 N   -1.584563002458   -0.840611280769    0.001189724105
 H   -1.574747205335   -1.858896392635    0.001162420010
 C   -0.323308713225   -0.204555793806    0.001206818941
 O    0.710384214843   -0.873819628222    0.000461153277
 C   -0.404787504985    1.255991267584    0.000706921494
 H    0.518612633317    1.833051526450    0.000366244717
 H   -3.702964746467    1.595724688590    0.000956223752
RB    2.134990902315   -0.145470155485   -0.001221575066
