13

 N   -2.876006333411    1.096816384330    0.001248565506
 C   -1.702266750328    1.824188575840    0.000936086336
 H   -1.819983610391    2.909507034884    0.000820238777
 C   -2.921782306491   -0.296395407537    0.000863510937
 O   -3.973370475047   -0.930498721378    0.001206878041
 N   -1.661341765350   -0.879865463669    0.001280414259
 H   -1.651525968227   -1.898150575535    0.001253110164
 C   -0.400087476117   -0.243809976706    0.001297509095
 O    0.633605451951   -0.913073811122    0.000551843431
 C   -0.481566267877    1.216737084684    0.000797611648
 H    0.441833870425    1.793797343550    0.000456934871
 H   -3.779743509359    1.556470505690    0.001046913906
RB    2.236287975356   -0.093680654293   -0.001341225954
