13

 N   -6.023935611993   -0.512605114551    0.004966861836
 C   -4.850196028910    0.214767076959    0.004654382666
 H   -4.967912888973    1.300085536003    0.004538535107
 C   -6.069711585073   -1.905816906418    0.004581807267
 O   -7.121299753629   -2.539920220259    0.004925174371
 N   -4.809271043932   -2.489286962550    0.004998710589
 H   -4.799455246809   -3.507572074416    0.004971406494
 C   -3.548016754699   -1.853231475587    0.005015805425
 O   -2.514323826631   -2.522495310003    0.004270139761
 C   -3.629495546459   -0.392684414197    0.004515907978
 H   -2.706095408157    0.184375844669    0.004175231201
 H   -6.927672787941   -0.052950993191    0.004765210236
RB    6.389467970068    2.029688894602   -0.006246912380
