13

 N   -3.221510766426    0.920172561282    0.001656671201
 C   -2.047771183343    1.647544752792    0.001344192031
 H   -2.165488043406    2.732863211836    0.001228344472
 C   -3.267286739506   -0.473039230585    0.001271616632
 O   -4.318874908062   -1.107142544426    0.001614983736
 N   -2.006846198365   -1.056509286717    0.001688519954
 H   -1.997030401242   -2.074794398583    0.001661215859
 C   -0.745591909132   -0.420453799754    0.001705614790
 O    0.288101018936   -1.089717634170    0.000959949126
 C   -0.827070700892    1.040093261636    0.001205717343
 H    0.096329437410    1.617153520502    0.000865040566
 H   -4.125247942374    1.379826682642    0.001455019601
RB    2.692124804044    0.139372101074   -0.001879654952
