13

 N   -3.298289529319    0.880918378383    0.001747361355
 C   -2.124549946236    1.608290569893    0.001434882185
 H   -2.242266806299    2.693609028937    0.001319034626
 C   -3.344065502399   -0.512293413484    0.001362306786
 O   -4.395653670955   -1.146396727325    0.001705673890
 N   -2.083624961258   -1.095763469616    0.001779210108
 H   -2.073809164135   -2.114048581482    0.001751906013
 C   -0.822370672025   -0.459707982653    0.001796304944
 O    0.211322256043   -1.128971817069    0.001050639280
 C   -0.903849463785    1.000839078737    0.001296407497
 H    0.019550674517    1.577899337603    0.000955730720
 H   -4.202026705267    1.340572499743    0.001545709755
RB    2.793421877086    0.191161602266   -0.001999305841
