13

 N   -3.375068292211    0.841664195483    0.001838051510
 C   -2.201328709128    1.569036386993    0.001525572340
 H   -2.319045569191    2.654354846037    0.001409724781
 C   -3.420844265291   -0.551547596384    0.001452996941
 O   -4.472432433847   -1.185650910225    0.001796364045
 N   -2.160403724150   -1.135017652516    0.001869900263
 H   -2.150587927027   -2.153302764382    0.001842596168
 C   -0.899149434917   -0.498962165553    0.001886995099
 O    0.134543493151   -1.168225999969    0.001141329435
 C   -0.980628226677    0.961584895837    0.001387097652
 H   -0.057228088375    1.538645154703    0.001046420875
 H   -4.278805468159    1.301318316843    0.001636399910
RB    2.894718950128    0.242951103459   -0.002118956729
