13

 N   -3.451847055103    0.802410012584    0.001928741664
 C   -2.278107472020    1.529782204094    0.001616262494
 H   -2.395824332083    2.615100663138    0.001500414935
 C   -3.497623028183   -0.590801779283    0.001543687095
 O   -4.549211196739   -1.224905093124    0.001887054199
 N   -2.237182487042   -1.174271835415    0.001960590417
 H   -2.227366689919   -2.192556947281    0.001933286322
 C   -0.975928197809   -0.538216348452    0.001977685253
 O    0.057764730259   -1.207480182868    0.001232019589
 C   -1.057406989569    0.922330712938    0.001477787806
 H   -0.134006851267    1.499390971804    0.001137111029
 H   -4.355584231051    1.262064133944    0.001727090064
RB    2.996016023169    0.294740604651   -0.002238607618
