13

 N   -3.490236436549    0.782782921134    0.001974086741
 C   -2.316496853466    1.510155112644    0.001661607571
 H   -2.434213713529    2.595473571688    0.001545760012
 C   -3.536012409629   -0.610428870733    0.001589032172
 O   -4.587600578185   -1.244532184574    0.001932399276
 N   -2.275571868488   -1.193898926865    0.002005935494
 H   -2.265756071365   -2.212184038731    0.001978631399
 C   -1.014317579255   -0.557843439902    0.002023030330
 O    0.019375348813   -1.227107274318    0.001277364666
 C   -1.095796371015    0.902703621488    0.001523132883
 H   -0.172396232713    1.479763880354    0.001182456106
 H   -4.393973612497    1.242437042494    0.001772435141
RB    3.046664559690    0.320635355248   -0.002298433062
