13

 N   -3.643793962334    0.704274555335    0.002155467050
 C   -2.470054379251    1.431646746845    0.001842987880
 H   -2.587771239314    2.516965205889    0.001727140321
 C   -3.689569935414   -0.688937236532    0.001770412481
 O   -4.741158103970   -1.323040550373    0.002113779585
 N   -2.429129394273   -1.272407292664    0.002187315803
 H   -2.419313597150   -2.290692404530    0.002160011708
 C   -1.167875105040   -0.636351805701    0.002204410639
 O   -0.134182176972   -1.305615640117    0.001458744975
 C   -1.249353896800    0.824195255689    0.001704513192
 H   -0.325953758498    1.401255514555    0.001363836415
 H   -4.547531138282    1.163928676695    0.001953815450
RB    3.249258705774    0.424214357633   -0.002537734839
