13

 N   -3.682183343780    0.684647463885    0.002200812127
 C   -2.508443760697    1.412019655395    0.001888332957
 H   -2.626160620760    2.497338114439    0.001772485398
 C   -3.727959316860   -0.708564327982    0.001815757558
 O   -4.779547485416   -1.342667641823    0.002159124662
 N   -2.467518775719   -1.292034384114    0.002232660880
 H   -2.457702978596   -2.310319495980    0.002205356785
 C   -1.206264486486   -0.655978897151    0.002249755716
 O   -0.172571558418   -1.325242731567    0.001504090052
 C   -1.287743278246    0.804568164239    0.001749858269
 H   -0.364343139944    1.381628423105    0.001409181492
 H   -4.585920519728    1.144301585245    0.001999160527
RB    3.299907242295    0.450109108229   -0.002597560283
