13

 N   -3.874130251010    0.586512006636    0.002427537513
 C   -2.700390667927    1.313884198146    0.002115058343
 H   -2.818107527990    2.399202657190    0.001999210784
 C   -3.919906224090   -0.806699785231    0.002042482944
 O   -4.971494392646   -1.440803099072    0.002385850048
 N   -2.659465682949   -1.390169841363    0.002459386266
 H   -2.649649885826   -2.408454953229    0.002432082171
 C   -1.398211393716   -0.754114354400    0.002476481102
 O   -0.364518465648   -1.423378188816    0.001730815438
 C   -1.479690185476    0.706432706990    0.001976583655
 H   -0.556290047174    1.283492965856    0.001635906878
 H   -4.777867426958    1.046166127996    0.002225885913
RB    3.553149924899    0.579582861210   -0.002896687504
