13

 N   -3.950909013903    0.547257823737    0.002518227668
 C   -2.777169430820    1.274630015247    0.002205748498
 H   -2.894886290883    2.359948474291    0.002089900939
 C   -3.996684986983   -0.845953968130    0.002133173099
 O   -5.048273155539   -1.480057281971    0.002476540203
 N   -2.736244445842   -1.429424024262    0.002550076421
 H   -2.726428648719   -2.447709136128    0.002522772326
 C   -1.474990156609   -0.793368537299    0.002567171257
 O   -0.441297228541   -1.462632371715    0.001821505593
 C   -1.556468948369    0.667178524091    0.002067273810
 H   -0.633068810067    1.244238782957    0.001726597033
 H   -4.854646189851    1.006911945097    0.002316576068
RB    3.654446997941    0.631372362403   -0.003016338392
