13

 N   -3.989298395349    0.527630732287    0.002563572745
 C   -2.815558812266    1.255002923797    0.002251093575
 H   -2.933275672329    2.340321382841    0.002135246016
 C   -4.035074368429   -0.865581059580    0.002178518176
 O   -5.086662536985   -1.499684373421    0.002521885280
 N   -2.774633827288   -1.449051115712    0.002595421498
 H   -2.764818030165   -2.467336227578    0.002568117403
 C   -1.513379538055   -0.812995628749    0.002612516334
 O   -0.479686609987   -1.482259463165    0.001866850670
 C   -1.594858329815    0.647551432641    0.002112618887
 H   -0.671458191513    1.224611691507    0.001771942110
 H   -4.893035571297    0.987284853647    0.002361921145
RB    3.705095534462    0.657267112999   -0.003076163837
