13

 N   -4.104466539687    0.468749457938    0.002699607977
 C   -2.930726956604    1.196121649448    0.002387128807
 H   -3.048443816667    2.281440108492    0.002271281248
 C   -4.150242512767   -0.924462333929    0.002314553408
 O   -5.201830681323   -1.558565647770    0.002657920512
 N   -2.889801971626   -1.507932390061    0.002731456730
 H   -2.879986174503   -2.526217501927    0.002704152635
 C   -1.628547682393   -0.871876903098    0.002748551566
 O   -0.594854754325   -1.541140737514    0.002002885902
 C   -1.710026474153    0.588670158292    0.002248654119
 H   -0.786626335851    1.165730417158    0.001907977342
 H   -5.008203715635    0.928403579298    0.002497956377
RB    3.857041144024    0.734951364788   -0.003255640169
