13

 N   -4.142855921133    0.449122366488    0.002744953054
 C   -2.969116338050    1.176494557998    0.002432473884
 H   -3.086833198113    2.261813017042    0.002316626325
 C   -4.188631894213   -0.944089425379    0.002359898485
 O   -5.240220062769   -1.578192739220    0.002703265589
 N   -2.928191353072   -1.527559481511    0.002776801807
 H   -2.918375555949   -2.545844593377    0.002749497712
 C   -1.666937063839   -0.891503994548    0.002793896643
 O   -0.633244135771   -1.560767828964    0.002048230979
 C   -1.748415855599    0.569043066842    0.002293999196
 H   -0.825015717297    1.146103325708    0.001953322419
 H   -5.046593097081    0.908776487848    0.002543301454
RB    3.907689680545    0.760846115384   -0.003315465614
