13

 N   -4.219634684026    0.409868183588    0.002835643208
 C   -3.045895100943    1.137240375098    0.002523164038
 H   -3.163611961006    2.222558834142    0.002407316479
 C   -4.265410657106   -0.983343608279    0.002450588639
 O   -5.316998825662   -1.617446922120    0.002793955743
 N   -3.004970115965   -1.566813664411    0.002867491961
 H   -2.995154318842   -2.585098776277    0.002840187866
 C   -1.743715826732   -0.930758177448    0.002884586797
 O   -0.710022898664   -1.600022011864    0.002138921133
 C   -1.825194618492    0.529788883942    0.002384689350
 H   -0.901794480190    1.106849142808    0.002044012573
 H   -5.123371859974    0.869522304948    0.002633991608
RB    4.008986753587    0.812635616577   -0.003435116502
