13

 N   -4.296413446918    0.370614000689    0.002926333363
 C   -3.122673863835    1.097986192199    0.002613854193
 H   -3.240390723898    2.183304651243    0.002498006634
 C   -4.342189419998   -1.022597791178    0.002541278794
 O   -5.393777588554   -1.656701105019    0.002884645898
 N   -3.081748878857   -1.606067847310    0.002958182116
 H   -3.071933081734   -2.624352959176    0.002930878021
 C   -1.820494589624   -0.970012360347    0.002975276952
 O   -0.786801661556   -1.639276194763    0.002229611288
 C   -1.901973381384    0.490534701043    0.002475379505
 H   -0.978573243082    1.067594959909    0.002134702728
 H   -5.200150622866    0.830268122049    0.002724681763
RB    4.110283826629    0.864425117769   -0.003554767390
