13

 N   -4.488360354148    0.272478543440    0.003153058749
 C   -3.314620771065    0.999850734950    0.002840579579
 H   -3.432337631128    2.085169193994    0.002724732020
 C   -4.534136327228   -1.120733248427    0.002768004180
 O   -5.585724495784   -1.754836562268    0.003111371284
 N   -3.273695786087   -1.704203304559    0.003184907502
 H   -3.263879988964   -2.722488416425    0.003157603407
 C   -2.012441496854   -1.068147817596    0.003202002338
 O   -0.978748568786   -1.737411652012    0.002456336674
 C   -2.093920288614    0.392399243794    0.002702104891
 H   -1.170520150312    0.969459502660    0.002361428114
 H   -5.392097530096    0.732132664800    0.002951407149
RB    4.363526509233    0.993898870751   -0.003853894612
