13

 N   -4.526749735594    0.252851451990    0.003198403826
 C   -3.353010152511    0.980223643500    0.002885924656
 H   -3.470727012574    2.065542102544    0.002770077097
 C   -4.572525708674   -1.140360339877    0.002813349257
 O   -5.624113877230   -1.774463653718    0.003156716361
 N   -3.312085167533   -1.723830396009    0.003230252579
 H   -3.302269370410   -2.742115507875    0.003202948484
 C   -2.050830878300   -1.087774909046    0.003247347415
 O   -1.017137950232   -1.757038743462    0.002501681751
 C   -2.132309670060    0.372772152344    0.002747449968
 H   -1.208909531758    0.949832411210    0.002406773191
 H   -5.430486911542    0.712505573350    0.002996752226
RB    4.414175045754    1.019793621347   -0.003913720056
