13

 N   -4.603528498487    0.213597269091    0.003289093980
 C   -3.429788915404    0.940969460601    0.002976614810
 H   -3.547505775467    2.026287919645    0.002860767251
 C   -4.649304471567   -1.179614522776    0.002904039411
 O   -5.700892640123   -1.813717836617    0.003247406515
 N   -3.388863930426   -1.763084578908    0.003320942733
 H   -3.379048133303   -2.781369690774    0.003293638638
 C   -2.127609641193   -1.127029091945    0.003338037569
 O   -1.093916713125   -1.796292926361    0.002592371905
 C   -2.209088432953    0.333517969445    0.002838140122
 H   -1.285688294651    0.910578228311    0.002497463345
 H   -5.507265674435    0.673251390451    0.003087442380
RB    4.515472118796    1.071583122540   -0.004033370944
