13

 N   -4.641917879933    0.193970177641    0.003334439057
 C   -3.468178296850    0.921342369151    0.003021959887
 H   -3.585895156913    2.006660828195    0.002906112328
 C   -4.687693853013   -1.199241614226    0.002949384488
 O   -5.739282021569   -1.833344928067    0.003292751592
 N   -3.427253311872   -1.782711670358    0.003366287810
 H   -3.417437514749   -2.800996782224    0.003338983715
 C   -2.165999022639   -1.146656183395    0.003383382646
 O   -1.132306094571   -1.815920017811    0.002637716982
 C   -2.247477814399    0.313890877995    0.002883485199
 H   -1.324077676097    0.890951136861    0.002542808422
 H   -5.545655055881    0.653624299001    0.003132787457
RB    4.566120655316    1.097477873136   -0.004093196388
