13

 N   -4.757086024271    0.135088903291    0.003470474289
 C   -3.583346441188    0.862461094801    0.003157995119
 H   -3.701063301251    1.947779553845    0.003042147560
 C   -4.802861997351   -1.258122888576    0.003085419720
 O   -5.854450165907   -1.892226202417    0.003428786824
 N   -3.542421456210   -1.841592944708    0.003502323042
 H   -3.532605659087   -2.859878056574    0.003475018947
 C   -2.281167166977   -1.205537457745    0.003519417878
 O   -1.247474238909   -1.874801292161    0.002773752214
 C   -2.362645958737    0.255009603645    0.003019520431
 H   -1.439245820435    0.832069862511    0.002678843654
 H   -5.660823200219    0.594743024651    0.003268822689
RB    4.718066264879    1.175162124925   -0.004272672721
