13

 N   -4.872254168609    0.076207628942    0.003606509521
 C   -3.698514585526    0.803579820452    0.003294030351
 H   -3.816231445589    1.888898279496    0.003178182792
 C   -4.918030141689   -1.317004162925    0.003221454952
 O   -5.969618310245   -1.951107476766    0.003564822056
 N   -3.657589600548   -1.900474219057    0.003638358274
 H   -3.647773803425   -2.918759330923    0.003611054179
 C   -2.396335311315   -1.264418732094    0.003655453110
 O   -1.362642383247   -1.933682566510    0.002909787446
 C   -2.477814103075    0.196128329296    0.003155555663
 H   -1.554413964773    0.773188588162    0.002814878886
 H   -5.775991344557    0.535861750302    0.003404857921
RB    4.870011874442    1.252846376713   -0.004452149054
