13

 N   -5.025811694394   -0.002300736857    0.003787889829
 C   -3.852072111311    0.725071454653    0.003475410659
 H   -3.969788971374    1.810389913697    0.003359563100
 C   -5.071587667474   -1.395512528724    0.003402835260
 O   -6.123175836030   -2.029615842565    0.003746202364
 N   -3.811147126333   -1.978982584856    0.003819738582
 H   -3.801331329210   -2.997267696722    0.003792434487
 C   -2.549892837100   -1.342927097893    0.003836833418
 O   -1.516199909032   -2.012190932309    0.003091167754
 C   -2.631371628860    0.117619963497    0.003336935971
 H   -1.707971490558    0.694680222363    0.002996259194
 H   -5.929548870342    0.457353384503    0.003586238229
RB    5.072606020525    1.356425379099   -0.004691450831
