13

 N   -5.102590457286   -0.041554919757    0.003878579984
 C   -3.928850874203    0.685817271753    0.003566100814
 H   -4.046567734266    1.771135730797    0.003450253255
 C   -5.148366430366   -1.434766711624    0.003493525415
 O   -6.199954598922   -2.068870025465    0.003836892519
 N   -3.887925889225   -2.018236767756    0.003910428737
 H   -3.878110092102   -3.036521879622    0.003883124642
 C   -2.626671599992   -1.382181280793    0.003927523573
 O   -1.592978671924   -2.051445115209    0.003181857909
 C   -2.708150391752    0.078365780597    0.003427626126
 H   -1.784750253450    0.655426039463    0.003086949349
 H   -6.006327633234    0.418099201603    0.003676928384
RB    5.173903093567    1.408214880291   -0.004811101719
