13

 N   -5.140979838732   -0.061182011206    0.003923925061
 C   -3.967240255649    0.666190180304    0.003611445891
 H   -4.084957115712    1.751508639348    0.003495598332
 C   -5.186755811812   -1.454393803073    0.003538870492
 O   -6.238343980368   -2.088497116914    0.003882237596
 N   -3.926315270671   -2.037863859205    0.003955773814
 H   -3.916499473548   -3.056148971071    0.003928469719
 C   -2.665060981438   -1.401808372242    0.003972868650
 O   -1.631368053370   -2.071072206658    0.003227202986
 C   -2.746539773198    0.058738689148    0.003472971203
 H   -1.823139634896    0.635798948014    0.003132294426
 H   -6.044717014680    0.398472110154    0.003722273461
RB    5.224551630088    1.434109630887   -0.004870927163
