13

 N   -5.332926745963   -0.159317468455    0.004150650447
 C   -4.159187162880    0.568054723055    0.003838171277
 H   -4.276904022943    1.653373182099    0.003722323718
 C   -5.378702719043   -1.552529260322    0.003765595878
 O   -6.430290887599   -2.186632574163    0.004108962982
 N   -4.118262177902   -2.135999316454    0.004182499200
 H   -4.108446380779   -3.154284428320    0.004155195105
 C   -2.857007888669   -1.499943829491    0.004199594036
 O   -1.823314960601   -2.169207663907    0.003453928372
 C   -2.938486680429   -0.039396768101    0.003699696589
 H   -2.015086542127    0.537663490765    0.003359019812
 H   -6.236663921911    0.300336652905    0.003948998847
RB    5.477794312692    1.563583383869   -0.005170054384
