13

 N   -5.486484271747   -0.237825834254    0.004332030756
 C   -4.312744688664    0.489546357256    0.004019551586
 H   -4.430461548727    1.574864816300    0.003903704027
 C   -5.532260244827   -1.631037626121    0.003946976187
 O   -6.583848413383   -2.265140939962    0.004290343291
 N   -4.271819703686   -2.214507682253    0.004363879509
 H   -4.262003906563   -3.232792794119    0.004336575414
 C   -3.010565414453   -1.578452195290    0.004380974345
 O   -1.976872486385   -2.247716029706    0.003635308681
 C   -3.092044206213   -0.117905133900    0.003881076898
 H   -2.168644067911    0.459155124966    0.003540400121
 H   -6.390221447695    0.221828287106    0.004130379156
RB    5.680388458776    1.667162386254   -0.005409356161
