13

 N   -5.524873653193   -0.257452925704    0.004377375833
 C   -4.351134070110    0.469919265806    0.004064896663
 H   -4.468850930173    1.555237724850    0.003949049104
 C   -5.570649626273   -1.650664717571    0.003992321264
 O   -6.622237794829   -2.284768031412    0.004335688368
 N   -4.310209085132   -2.234134773703    0.004409224586
 H   -4.300393288009   -3.252419885569    0.004381920491
 C   -3.048954795899   -1.598079286740    0.004426319422
 O   -2.015261867831   -2.267343121156    0.003680653758
 C   -3.130433587659   -0.137532225350    0.003926421975
 H   -2.207033449357    0.439528033516    0.003585745198
 H   -6.428610829141    0.202201195656    0.004175724233
RB    5.731036995296    1.693057136850   -0.005469181606
