13

 N   -5.563263034640   -0.277080017154    0.004422720910
 C   -4.389523451557    0.450292174356    0.004110241740
 H   -4.507240311620    1.535610633400    0.003994394181
 C   -5.609039007720   -1.670291809021    0.004037666341
 O   -6.660627176276   -2.304395122862    0.004381033445
 N   -4.348598466579   -2.253761865153    0.004454569663
 H   -4.338782669456   -3.272046977019    0.004427265568
 C   -3.087344177346   -1.617706378190    0.004471664499
 O   -2.053651249278   -2.286970212606    0.003725998835
 C   -3.168822969106   -0.157159316800    0.003971767052
 H   -2.245422830804    0.419900942066    0.003631090275
 H   -6.467000210588    0.182574104206    0.004221069310
RB    5.781685531817    1.718951887446   -0.005529007050
