13

 N   -5.601652416086   -0.296707108604    0.004468065987
 C   -4.427912833003    0.430665082906    0.004155586817
 H   -4.545629693066    1.515983541950    0.004039739258
 C   -5.647428389166   -1.689918900471    0.004083011418
 O   -6.699016557722   -2.324022214312    0.004426378522
 N   -4.386987848025   -2.273388956603    0.004499914740
 H   -4.377172050902   -3.291674068469    0.004472610645
 C   -3.125733558792   -1.637333469640    0.004517009576
 O   -2.092040630724   -2.306597304056    0.003771343912
 C   -3.207212350552   -0.176786408250    0.004017112129
 H   -2.283812212250    0.400273850616    0.003676435352
 H   -6.505389592034    0.162947012756    0.004266414387
RB    5.832334068338    1.744846638043   -0.005588832494
