13

 N   -5.678431178978   -0.335961291503    0.004558756142
 C   -4.504691595895    0.391410900007    0.004246276972
 H   -4.622408455958    1.476729359051    0.004130429413
 C   -5.724207152058   -1.729173083370    0.004173701573
 O   -6.775795320614   -2.363276397211    0.004517068677
 N   -4.463766610917   -2.312643139502    0.004590604895
 H   -4.453950813794   -3.330928251368    0.004563300800
 C   -3.202512321684   -1.676587652539    0.004607699731
 O   -2.168819393616   -2.345851486955    0.003862034067
 C   -3.283991113444   -0.216040591149    0.004107802284
 H   -2.360590975142    0.361019667717    0.003767125507
 H   -6.582168354926    0.123692829857    0.004357104542
RB    5.933631141380    1.796636139235   -0.005708483382
