13

 N   -5.870378086209   -0.434096748752    0.004785481528
 C   -4.696638503126    0.293275442758    0.004473002358
 H   -4.814355363189    1.378593901802    0.004357154799
 C   -5.916154059289   -1.827308540619    0.004400426959
 O   -6.967742227845   -2.461411854460    0.004743794063
 N   -4.655713518148   -2.410778596751    0.004817330281
 H   -4.645897721025   -3.429063708617    0.004790026186
 C   -3.394459228915   -1.774723109788    0.004834425117
 O   -2.360766300847   -2.443986944204    0.004088759453
 C   -3.475938020675   -0.314176048398    0.004334527670
 H   -2.552537882373    0.262884210468    0.003993850893
 H   -6.774115262157    0.025557372608    0.004583829928
RB    6.186873823984    1.926109892217   -0.006007610604
