13

 N   -5.908767467655   -0.453723840202    0.004830826605
 C   -4.735027884572    0.273648351308    0.004518347435
 H   -4.852744744635    1.358966810352    0.004402499876
 C   -5.954543440735   -1.846935632069    0.004445772036
 O   -7.006131609291   -2.481038945910    0.004789139140
 N   -4.694102899594   -2.430405688201    0.004862675358
 H   -4.684287102471   -3.448690800067    0.004835371263
 C   -3.432848610361   -1.794350201238    0.004879770194
 O   -2.399155682293   -2.463614035654    0.004134104530
 C   -3.514327402121   -0.333803139848    0.004379872747
 H   -2.590927263819    0.243257119018    0.004039195970
 H   -6.812504643603    0.005930281158    0.004629175005
RB    6.237522360505    1.952004642813   -0.006067436048
