13

 N   -5.985546230547   -0.492978023101    0.004921516759
 C   -4.811806647464    0.234394168409    0.004609037589
 H   -4.929523507527    1.319712627453    0.004493190030
 C   -6.031322203627   -1.886189814968    0.004536462190
 O   -7.082910372183   -2.520293128809    0.004879829294
 N   -4.770881662486   -2.469659871100    0.004953365512
 H   -4.761065865363   -3.487944982966    0.004926061417
 C   -3.509627373253   -1.833604384137    0.004970460348
 O   -2.475934445185   -2.502868218553    0.004224794684
 C   -3.591106165013   -0.373057322747    0.004470562901
 H   -2.667706026711    0.204002936119    0.004129886124
 H   -6.889283406495   -0.033323901741    0.004719865159
RB    6.338819433547    2.003794144005   -0.006187086936
