22

 H    4.608987470517   -0.424054438728   -0.953048366843
 H    3.803247470517   -1.765414438728   -1.864558366843
 H    3.924027470517   -1.881484438728   -0.091428366843
 C    3.835217470517   -1.183454438728   -0.929828366843
 S    2.177977470517   -0.398694438728   -0.851548366843
 S    2.056147470517    0.293525561272    1.146661633157
 C    3.722957470517    0.996835561272    1.455901633157
 H    4.447667470517    0.200435561272    1.583801633157
 H    3.591497470517    1.583795561272    2.378581633157
 H    3.961157470517    1.686275561272    0.639721633157
CS   -1.049012529483    1.142525561272    2.006171633157
CS   -0.816932529483   -1.096174438728   -2.136228366843
 S    0.460509057371    0.333154232921    1.035451818509
 S    0.582339080274   -0.359065897212   -0.962758557141
 C   -1.196725929606    1.117911032337    1.113736338763
 H   -1.970497777307    0.358500389836    1.136960037051
 H   -1.164761864827    1.699866376155    2.048477324258
 H   -1.285549131245    1.815936999366    0.275339123415
 C   -1.084472941375   -1.062379421941   -1.272006192575
 H   -1.809182550600   -0.265978990187   -1.399901685458
 H   -0.953011132594   -1.649332082499   -2.194681857962
 H   -1.322660144487   -1.751821939573   -0.455825631637
