22

 H    4.650299194238   -0.425080441061   -0.950169099773
 H    3.844559194238   -1.766440441061   -1.861679099773
 H    3.965339194238   -1.882510441061   -0.088549099773
 C    3.876529194238   -1.184480441061   -0.926949099773
 S    2.219289194238   -0.399720441061   -0.848669099773
 S    2.097459194238    0.292499558939    1.149540900227
 C    3.764269194238    0.995809558939    1.458780900227
 H    4.488979194238    0.199409558939    1.586680900227
 H    3.632809194238    1.582769558939    2.381460900227
 H    4.002469194238    1.685249558939    0.642600900227
CS   -1.007700805762    1.141499558939    2.009050900227
CS   -0.775620805762   -1.097200441061   -2.133349099773
 S    0.302365979448    0.337081814544    1.024429858748
 S    0.424196002351   -0.355138315589   -0.973780516903
 C   -1.354869007529    1.121838613960    1.102714379002
 H   -2.128640855230    0.362427971459    1.125938077289
 H   -1.322904942750    1.703793957779    2.037455364497
 H   -1.443692209168    1.819864580989    0.264317163653
 C   -1.242616019298   -1.058451840318   -1.283028152337
 H   -1.967325628523   -0.262051408564   -1.410923645219
 H   -1.111154210517   -1.645404500876   -2.205703817723
 H   -1.480803222410   -1.747894357950   -0.466847591398
