22

 H    4.670955056098   -0.425593442227   -0.948729466239
 H    3.865215056098   -1.766953442227   -1.860239466239
 H    3.985995056098   -1.883023442227   -0.087109466239
 C    3.897185056098   -1.184993442227   -0.925509466239
 S    2.239945056098   -0.400233442227   -0.847229466239
 S    2.118115056098    0.291986557773    1.150980533761
 C    3.784925056098    0.995296557773    1.460220533761
 H    4.509635056098    0.198896557773    1.588120533761
 H    3.653465056098    1.582256557773    2.382900533761
 H    4.023125056098    1.684736557773    0.644040533761
CS   -0.987044943902    1.140986557773    2.010490533761
CS   -0.754964943902   -1.097713442227   -2.131909466239
 S    0.223294440486    0.339045605355    1.018918878867
 S    0.345124463389   -0.353174524778   -0.979291496784
 C   -1.433940546490    1.123802404772    1.097203399121
 H   -2.207712394191    0.364391762271    1.120427097408
 H   -1.401976481711    1.705757748590    2.031944384616
 H   -1.522763748129    1.821828371800    0.258806183773
 C   -1.321687558259   -1.056488049506   -1.288539132218
 H   -2.046397167485   -0.260087617753   -1.416434625100
 H   -1.190225749478   -1.643440710064   -2.211214797604
 H   -1.559874761372   -1.745930567138   -0.472358571279
