22

 H    4.774234365399   -0.428158448060   -0.941531298565
 H    3.968494365399   -1.769518448060   -1.853041298565
 H    4.089274365399   -1.885588448060   -0.079911298565
 C    4.000464365399   -1.187558448060   -0.918311298565
 S    2.343224365399   -0.402798448060   -0.840031298565
 S    2.221394365399    0.289421551940    1.158178701435
 C    3.888204365399    0.992731551940    1.467418701435
 H    4.612914365399    0.196331551940    1.595318701435
 H    3.756744365399    1.579691551940    2.390098701435
 H    4.126404365399    1.682171551940    0.651238701435
CS   -0.883765634601    1.138421551940    2.017688701435
CS   -0.651685634601   -1.100278448060   -2.124711298565
 S   -0.172063254321    0.348864559413    0.991363979463
 S   -0.050233231418   -0.343355570720   -1.006846396188
 C   -1.829298241298    1.133621358829    1.069648499717
 H   -2.603070088999    0.374210716329    1.092872198005
 H   -1.797334176519    1.715576702648    2.004389485212
 H   -1.918121442937    1.831647325858    0.231251284369
 C   -1.717045253067   -1.046669095448   -1.316094031622
 H   -2.441754862292   -0.250268663695   -1.443989524504
 H   -1.585583444286   -1.633621756007   -2.238769697008
 H   -1.955232456179   -1.736111613081   -0.499913470683
