22

 H    4.856857812839   -0.430210452726   -0.935772764426
 H    4.051117812839   -1.771570452726   -1.847282764426
 H    4.171897812839   -1.887640452726   -0.074152764426
 C    4.083087812839   -1.189610452726   -0.912552764426
 S    2.425847812839   -0.404850452726   -0.834272764426
 S    2.304017812839    0.287369547274    1.163937235574
 C    3.970827812839    0.990679547274    1.473177235574
 H    4.695537812839    0.194279547274    1.601077235574
 H    3.839367812839    1.577639547274    2.395857235574
 H    4.209027812839    1.680119547274    0.656997235574
CS   -0.801142187161    1.136369547274    2.023447235574
CS   -0.569062187161   -1.102330452726   -2.118952764426
 S   -0.488349410167    0.356719722659    0.969320059940
 S   -0.366519387264   -0.335500407474   -1.028890315711
 C   -2.145584397144    1.141476522075    1.047604580194
 H   -2.919356244845    0.382065879575    1.070828278482
 H   -2.113620332365    1.723431865894    1.982345565689
 H   -2.234407598783    1.839502489104    0.209207364846
 C   -2.033331408913   -1.038813932202   -1.338137951145
 H   -2.758041018138   -0.242413500449   -1.466033444027
 H   -1.901869600132   -1.625766592760   -2.260813616531
 H   -2.271518612025   -1.728256449835   -0.521957390206
