22

 H    4.898169536560   -0.431236455059   -0.932893497357
 H    4.092429536560   -1.772596455059   -1.844403497357
 H    4.213209536560   -1.888666455059   -0.071273497357
 C    4.124399536560   -1.190636455059   -0.909673497357
 S    2.467159536560   -0.405876455059   -0.831393497357
 S    2.345329536560    0.286343544941    1.166816502643
 C    4.012139536560    0.989653544941    1.476056502643
 H    4.736849536560    0.193253544941    1.603956502643
 H    3.880679536560    1.576613544941    2.398736502643
 H    4.250339536560    1.679093544941    0.659876502643
CS   -0.759830463440    1.135343544941    2.026326502643
CS   -0.527750463440   -1.103356455059   -2.116073497357
 S   -0.646492488090    0.360647304282    0.958298100179
 S   -0.524662465187   -0.331572825851   -1.039912275472
 C   -2.303727475067    1.145404103698    1.036582620433
 H   -3.077499322768    0.385993461198    1.059806318720
 H   -2.271763410288    1.727359447517    1.971323605928
 H   -2.392550676706    1.843430070727    0.198185405084
 C   -2.191474486836   -1.034886350579   -1.349159910906
 H   -2.916184096061   -0.238485918826   -1.477055403788
 H   -2.060012678055   -1.621839011137   -2.271835576292
 H   -2.429661689948   -1.724328868212   -0.532979349967
