22

 H    4.918825398420   -0.431749456225   -0.931453863822
 H    4.113085398420   -1.773109456225   -1.842963863822
 H    4.233865398420   -1.889179456225   -0.069833863822
 C    4.145055398420   -1.191149456225   -0.908233863822
 S    2.487815398420   -0.406389456225   -0.829953863822
 S    2.365985398420    0.285830543775    1.168256136178
 C    4.032795398420    0.989140543775    1.477496136178
 H    4.757505398420    0.192740543775    1.605396136178
 H    3.901335398420    1.576100543775    2.400176136178
 H    4.270995398420    1.678580543775    0.661316136178
CS   -0.739174601580    1.134830543775    2.027766136178
CS   -0.507094601580   -1.103869456225   -2.114633863822
 S   -0.725564027052    0.362611095094    0.952787120298
 S   -0.603734004149   -0.329609035039   -1.045423255353
 C   -2.382799014028    1.147367894510    1.031071640552
 H   -3.156570861729    0.387957252009    1.054295338839
 H   -2.350834949249    1.729323238328    1.965812626047
 H   -2.471622215667    1.845393861539    0.192674425203
 C   -2.270546025797   -1.032922559768   -1.354670890787
 H   -2.995255635022   -0.236522128014   -1.482566383669
 H   -2.139084217016   -1.619875220326   -2.277346556173
 H   -2.508733228909   -1.722365077400   -0.538490329848
