22

 H    4.980792984000   -0.433288459725   -0.927134963218
 H    4.175052984000   -1.774648459725   -1.838644963218
 H    4.295832984000   -1.890718459725   -0.065514963218
 C    4.207022984000   -1.192688459725   -0.903914963218
 S    2.549782984000   -0.407928459725   -0.825634963218
 S    2.427952984000    0.284291540275    1.172575036782
 C    4.094762984000    0.987601540275    1.481815036782
 H    4.819472984000    0.191201540275    1.609715036782
 H    3.963302984000    1.574561540275    2.404495036782
 H    4.332962984000    1.677041540275    0.665635036782
CS   -0.677207016000    1.133291540275    2.032085036782
CS   -0.445127016000   -1.105408459725   -2.110314963218
 S   -0.962778643936    0.368502467528    0.936254180655
 S   -0.840948621033   -0.323717662605   -1.061956194995
 C   -2.620013630913    1.153259266944    1.014538700910
 H   -3.393785478614    0.393848624444    1.037762399197
 H   -2.588049566134    1.735214610763    1.949279686405
 H   -2.708836832552    1.851285233973    0.176141485561
 C   -2.507760642682   -1.027031187333   -1.371203830429
 H   -3.232470251907   -0.230630755580   -1.499099323311
 H   -2.376298833901   -1.613983847891   -2.293879495815
 H   -2.745947845794   -1.716473704966   -0.555023269490
