22

 H    5.042760569581   -0.434827463224   -0.922816062614
 H    4.237020569581   -1.776187463224   -1.834326062614
 H    4.357800569581   -1.892257463224   -0.061196062614
 C    4.268990569581   -1.194227463224   -0.899596062614
 S    2.611750569581   -0.409467463224   -0.821316062614
 S    2.489920569581    0.282752536776    1.176893937386
 C    4.156730569581    0.986062536776    1.486133937386
 H    4.881440569581    0.189662536776    1.614033937386
 H    4.025270569581    1.573022536776    2.408813937386
 H    4.394930569581    1.675502536776    0.669953937386
CS   -0.615239430419    1.131752536776    2.036403937386
CS   -0.383159430419   -1.106947463224   -2.105996062614
 S   -1.199993260821    0.374393839963    0.919721241013
 S   -1.078163237917   -0.317826290170   -1.078489134638
 C   -2.857228247797    1.159150639379    0.998005761267
 H   -3.631000095498    0.399739996878    1.021229459555
 H   -2.825264183018    1.741105983197    1.932746746762
 H   -2.946051449436    1.857176606408    0.159608545919
 C   -2.744975259566   -1.021139814899   -1.387736770072
 H   -3.469684868791   -0.224739383145   -1.515632262954
 H   -2.613513450785   -1.608092475457   -2.310412435458
 H   -2.983162462678   -1.710582332531   -0.571556209133
