22

 H    5.125384017022   -0.436879467890   -0.917057528475
 H    4.319644017022   -1.778239467890   -1.828567528475
 H    4.440424017022   -1.894309467890   -0.055437528475
 C    4.351614017022   -1.196279467890   -0.893837528475
 S    2.694374017022   -0.411519467890   -0.815557528475
 S    2.572544017022    0.280700532110    1.182652471525
 C    4.239354017022    0.984010532110    1.491892471525
 H    4.964064017022    0.187610532110    1.619792471525
 H    4.107894017022    1.570970532110    2.414572471525
 H    4.477554017022    1.673450532110    0.675712471525
CS   -0.532615982978    1.129700532110    2.042162471525
CS   -0.300535982978   -1.108999467890   -2.100237528475
 S   -1.516279416667    0.382249003209    0.897677321490
 S   -1.394449393763   -0.309971126924   -1.100533054161
 C   -3.173514403643    1.167005802625    0.975961841744
 H   -3.947286251344    0.407595160124    0.999185540032
 H   -3.141550338864    1.748961146443    1.910702827239
 H   -3.262337605282    1.865031769654    0.137564626396
 C   -3.061261415412   -1.013284651653   -1.409780689595
 H   -3.785971024637   -0.216884219899   -1.537676182477
 H   -2.929799606631   -1.600237312211   -2.332456354981
 H   -3.299448618524   -1.702727169285   -0.593600128656
