22

 H    5.166695740742   -0.437905470223   -0.914178261405
 H    4.360955740742   -1.779265470223   -1.825688261405
 H    4.481735740742   -1.895335470223   -0.052558261405
 C    4.392925740742   -1.197305470223   -0.890958261405
 S    2.735685740742   -0.412545470223   -0.812678261405
 S    2.613855740742    0.279674529777    1.185531738595
 C    4.280665740742    0.982984529777    1.494771738595
 H    5.005375740742    0.186584529777    1.622671738595
 H    4.149205740742    1.569944529777    2.417451738595
 H    4.518865740742    1.672424529777    0.678591738595
CS   -0.491304259258    1.128674529777    2.045041738595
CS   -0.259224259258   -1.110025470223   -2.097358261405
 S   -1.674422494590    0.386176584832    0.886655361729
 S   -1.552592471686   -0.306043545301   -1.111555013922
 C   -3.331657481566    1.170933384248    0.964939881983
 H   -4.105429329267    0.411522741747    0.988163580270
 H   -3.299693416787    1.752888728067    1.899680867478
 H   -3.420480683205    1.868959351277    0.126542666634
 C   -3.219404493335   -1.009357070030   -1.420802649356
 H   -3.944114102560   -0.212956638276   -1.548698142238
 H   -3.087942684554   -1.596309730588   -2.343478314742
 H   -3.457591696447   -1.698799587662   -0.604622088417
