22

 H    5.208007464462   -0.438931472556   -0.911298994336
 H    4.402267464462   -1.780291472556   -1.822808994336
 H    4.523047464462   -1.896361472556   -0.049678994336
 C    4.434237464462   -1.198331472556   -0.888078994336
 S    2.776997464462   -0.413571472556   -0.809798994336
 S    2.655167464462    0.278648527444    1.188411005664
 C    4.321977464462    0.981958527444    1.497651005664
 H    5.046687464462    0.185558527444    1.625551005664
 H    4.190517464462    1.568918527444    2.420331005664
 H    4.560177464462    1.671398527444    0.681471005664
CS   -0.449992535538    1.127648527444    2.047921005664
CS   -0.217912535538   -1.111051472556   -2.094478994336
 S   -1.832565572513    0.390104166455    0.875633401967
 S   -1.710735549609   -0.302115963678   -1.122576973684
 C   -3.489800559489    1.174860965871    0.953917922221
 H   -4.263572407190    0.415450323371    0.977141620508
 H   -3.457836494710    1.756816309690    1.888658907716
 H   -3.578623761128    1.872886932900    0.115520706873
 C   -3.377547571258   -1.005429488407   -1.431824609118
 H   -4.102257180483   -0.209029056653   -1.559720102000
 H   -3.246085762477   -1.592382148965   -2.354500274504
 H   -3.615734774370   -1.694872006039   -0.615644048179
