22

 H    5.228663326323   -0.439444473723   -0.909859360801
 H    4.422923326323   -1.780804473723   -1.821369360801
 H    4.543703326323   -1.896874473723   -0.048239360801
 C    4.454893326323   -1.198844473723   -0.886639360801
 S    2.797653326323   -0.414084473723   -0.808359360801
 S    2.675823326323    0.278135526277    1.189850639199
 C    4.342633326323    0.981445526277    1.499090639199
 H    5.067343326323    0.185045526277    1.626990639199
 H    4.211173326323    1.568405526277    2.421770639199
 H    4.580833326323    1.670885526277    0.682910639199
CS   -0.429336673677    1.127135526277    2.049360639199
CS   -0.197256673677   -1.111564473723   -2.093039360801
 S   -1.911637111474    0.392067957266    0.870122422086
 S   -1.789807088571   -0.300152172867   -1.128087953565
 C   -3.568872098450    1.176824756683    0.948406942340
 H   -4.342643946152    0.417414114182    0.971630640628
 H   -3.536908033671    1.758780100501    1.883147927835
 H   -3.657695300090    1.874850723711    0.110009726992
 C   -3.456619110220   -1.003465697595   -1.437335588999
 H   -4.181328719445   -0.207065265842   -1.565231081881
 H   -3.325157301439   -1.590418358153   -2.360011254385
 H   -3.694806313332   -1.692908215227   -0.621155028060
