22

 H    5.249319188183   -0.439957474889   -0.908419727266
 H    4.443579188183   -1.781317474889   -1.819929727266
 H    4.564359188183   -1.897387474889   -0.046799727266
 C    4.475549188183   -1.199357474889   -0.885199727266
 S    2.818309188183   -0.414597474889   -0.806919727266
 S    2.696479188183    0.277622525111    1.191290272734
 C    4.363289188183    0.980932525111    1.500530272734
 H    5.087999188183    0.184532525111    1.628430272734
 H    4.231829188183    1.567892525111    2.423210272734
 H    4.601489188183    1.670372525111    0.684350272734
CS   -0.408680811817    1.126622525111    2.050800272734
CS   -0.176600811817   -1.112077474889   -2.091599727266
 S   -1.990708650436    0.394031748078    0.864611442205
 S   -1.868878627532   -0.298188382055   -1.133598933445
 C   -3.647943637412    1.178788547494    0.942895962460
 H   -4.421715485113    0.419377904994    0.966119660747
 H   -3.615979572633    1.760743891313    1.877636947955
 H   -3.736766839051    1.876814514523    0.104498747111
 C   -3.535690649181   -1.001501906784   -1.442846568879
 H   -4.260400258406   -0.205101475030   -1.570742061761
 H   -3.404228840400   -1.588454567342   -2.365522234265
 H   -3.773877852293   -1.690944424416   -0.626666007940
