22

 H    5.269975050043   -0.440470476056   -0.906980093732
 H    4.464235050043   -1.781830476056   -1.818490093732
 H    4.585015050043   -1.897900476056   -0.045360093732
 C    4.496205050043   -1.199870476056   -0.883760093732
 S    2.838965050043   -0.415110476056   -0.805480093732
 S    2.717135050043    0.277109523944    1.192729906268
 C    4.383945050043    0.980419523944    1.501969906268
 H    5.108655050043    0.184019523944    1.629869906268
 H    4.252485050043    1.567379523944    2.424649906268
 H    4.622145050043    1.669859523944    0.685789906268
CS   -0.388024949957    1.126109523944    2.052239906268
CS   -0.155944949957   -1.112590476056   -2.090160093732
 S   -2.069780189397    0.395995538889    0.859100462325
 S   -1.947950166494   -0.296224591243   -1.139109913326
 C   -3.727015176373    1.180752338306    0.937384982579
 H   -4.500787024075    0.421341695805    0.960608680866
 H   -3.695051111594    1.762707682124    1.872125968074
 H   -3.815838378013    1.878778305334    0.098987767230
 C   -3.614762188142   -0.999538115972   -1.448357548760
 H   -4.339471797368   -0.203137684219   -1.576253041642
 H   -3.483300379361   -1.586490776530   -2.371033214146
 H   -3.852949391255   -1.688980633604   -0.632176987821
