22

 H    5.331942635624   -0.442009479556   -0.902661193127
 H    4.526202635624   -1.783369479556   -1.814171193127
 H    4.646982635624   -1.899439479556   -0.041041193127
 C    4.558172635624   -1.201409479556   -0.879441193127
 S    2.900932635624   -0.416649479556   -0.801161193127
 S    2.779102635624    0.275570520444    1.197048806873
 C    4.445912635624    0.978880520444    1.506288806873
 H    5.170622635624    0.182480520444    1.634188806873
 H    4.314452635624    1.565840520444    2.428968806873
 H    4.684112635624    1.668320520444    0.690108806873
CS   -0.326057364376    1.124570520444    2.056558806873
CS   -0.093977364376   -1.114129479556   -2.085841193127
 S   -2.306994806282    0.401886911324    0.842567522682
 S   -2.185164783378   -0.290333218809   -1.155642852968
 C   -3.964229793258    1.186643710740    0.920852042937
 H   -4.738001640959    0.427233068240    0.944075741224
 H   -3.932265728479    1.768599054559    1.855593028431
 H   -4.053052994897    1.884669677769    0.082454827588
 C   -3.851976805027   -0.993646743537   -1.464890488402
 H   -4.576686414252   -0.197246311784   -1.592785981285
 H   -3.720514996246   -1.580599404096   -2.387566153789
 H   -4.090164008139   -1.683089261170   -0.648709927464
