22

 H    5.435221944924   -0.444574485388   -0.895463025454
 H    4.629481944924   -1.785934485388   -1.806973025454
 H    4.750261944924   -1.902004485388   -0.033843025454
 C    4.661451944924   -1.203974485388   -0.872243025454
 S    3.004211944924   -0.419214485388   -0.793963025454
 S    2.882381944924    0.273005514612    1.204246974546
 C    4.549191944924    0.976315514612    1.513486974546
 H    5.273901944924    0.179915514612    1.641386974546
 H    4.417731944924    1.563275514612    2.436166974546
 H    4.787391944924    1.665755514612    0.697306974546
CS   -0.222778055076    1.122005514612    2.063756974546
CS    0.009301944924   -1.116694485388   -2.078643025454
 S   -2.702352501089    0.411705865382    0.815012623279
 S   -2.580522478186   -0.280514264751   -1.183197752372
 C   -4.359587488065    1.196462664798    0.893297143533
 H   -5.133359335766    0.437052022297    0.916520841820
 H   -4.327623423286    1.778418008616    1.828038129028
 H   -4.448410689705    1.894488631827    0.054899928184
 C   -4.247334499834   -0.983827789480   -1.492445387806
 H   -4.972044109060   -0.187427357726   -1.620340880688
 H   -4.115872691053   -1.570780450038   -2.415121053192
 H   -4.485521702947   -1.673270307112   -0.676264826867
