22

 H    5.476533668645   -0.445600487721   -0.892583758384
 H    4.670793668645   -1.786960487721   -1.804093758384
 H    4.791573668645   -1.903030487721   -0.030963758384
 C    4.702763668645   -1.205000487721   -0.869363758384
 S    3.045523668645   -0.420240487721   -0.791083758384
 S    2.923693668645    0.271979512279    1.207126241616
 C    4.590503668645    0.975289512279    1.516366241616
 H    5.315213668645    0.178889512279    1.644266241616
 H    4.459043668645    1.562249512279    2.439046241616
 H    4.828703668645    1.664729512279    0.700186241616
CS   -0.181466331355    1.120979512279    2.066636241616
CS    0.050613668645   -1.117720487721   -2.075763758384
 S   -2.860495579012    0.415633447005    0.803990663517
 S   -2.738665556109   -0.276586683128   -1.194219712134
 C   -4.517730565988    1.200390246421    0.882275183771
 H   -5.291502413689    0.440979603920    0.905498882058
 H   -4.485766501209    1.782345590239    1.817016169266
 H   -4.606553767627    1.898416213450    0.043877968423
 C   -4.405477577757   -0.979900207857   -1.503467347568
 H   -5.130187186983   -0.183499776103   -1.631362840450
 H   -4.274015768976   -1.566852868415   -2.426143012954
 H   -4.643664780870   -1.669342725489   -0.687286786629
