22

 H    5.517845392365   -0.446626490054   -0.889704491315
 H    4.712105392365   -1.787986490054   -1.801214491315
 H    4.832885392365   -1.904056490054   -0.028084491315
 C    4.744075392365   -1.206026490054   -0.866484491315
 S    3.086835392365   -0.421266490054   -0.788204491315
 S    2.965005392365    0.270953509946    1.210005508685
 C    4.631815392365    0.974263509946    1.519245508685
 H    5.356525392365    0.177863509946    1.647145508685
 H    4.500355392365    1.561223509946    2.441925508685
 H    4.870015392365    1.663703509946    0.703065508685
CS   -0.140154607635    1.119953509946    2.069515508685
CS    0.091925392365   -1.118746490054   -2.072884491315
 S   -3.018638656935    0.419561028628    0.792968703755
 S   -2.896808634032   -0.272659101505   -1.205241671895
 C   -4.675873643911    1.204317828044    0.871253224010
 H   -5.449645491612    0.444907185543    0.894476922297
 H   -4.643909579132    1.786273171862    1.805994209505
 H   -4.764696845550    1.902343795073    0.032856008661
 C   -4.563620655680   -0.975972626234   -1.514489307329
 H   -5.288330264906   -0.179572194480   -1.642384800211
 H   -4.432158846899   -1.562925286792   -2.437164972715
 H   -4.801807858792   -1.665415143866   -0.698308746390
