22

 H    5.538501254225   -0.447139491221   -0.888264857780
 H    4.732761254225   -1.788499491221   -1.799774857780
 H    4.853541254225   -1.904569491221   -0.026644857780
 C    4.764731254225   -1.206539491221   -0.865044857780
 S    3.107491254225   -0.421779491221   -0.786764857780
 S    2.985661254225    0.270440508779    1.211445142220
 C    4.652471254225    0.973750508779    1.520685142220
 H    5.377181254225    0.177350508779    1.648585142220
 H    4.521011254225    1.560710508779    2.443365142220
 H    4.890671254225    1.663190508779    0.704505142220
CS   -0.119498745775    1.119440508779    2.070955142220
CS    0.112581254225   -1.119259491221   -2.071444857780
 S   -3.097710195896    0.421524819439    0.787457723875
 S   -2.975880172993   -0.270695310694   -1.210752651776
 C   -4.754945182873    1.206281618855    0.865742244129
 H   -5.528717030574    0.446870976355    0.888965942416
 H   -4.722981118094    1.788236962674    1.800483229624
 H   -4.843768384512    1.904307585884    0.027345028780
 C   -4.642692194642   -0.974008835422   -1.520000287210
 H   -5.367401803867   -0.177608403669   -1.647895780092
 H   -4.511230385861   -1.560961495980   -2.442675952596
 H   -4.880879397754   -1.663451353055   -0.703819726271
