22

 H    5.579812977946   -0.448165493554   -0.885385590711
 H    4.774072977946   -1.789525493554   -1.796895590711
 H    4.894852977946   -1.905595493554   -0.023765590711
 C    4.806042977946   -1.207565493554   -0.862165590711
 S    3.148802977946   -0.422805493554   -0.783885590711
 S    3.026972977946    0.269414506446    1.214324409289
 C    4.693782977946    0.972724506446    1.523564409289
 H    5.418492977946    0.176324506446    1.651464409289
 H    4.562322977946    1.559684506446    2.446244409289
 H    4.931982977946    1.662164506446    0.707384409289
CS   -0.078187022054    1.118414506446    2.073834409289
CS    0.153892977946   -1.120285493554   -2.068565590711
 S   -3.255853273819    0.425452401062    0.776435764113
 S   -3.134023250916   -0.266767729071   -1.221774611538
 C   -4.913088260796    1.210209200478    0.854720284367
 H   -5.686860108497    0.450798557978    0.877943982655
 H   -4.881124196017    1.792164544297    1.789461269862
 H   -5.001911462435    1.908235167507    0.016323069019
 C   -4.800835272565   -0.970081253799   -1.531022246972
 H   -5.525544881790   -0.173680822046   -1.658917739854
 H   -4.669373463784   -1.557033914357   -2.453697912358
 H   -5.039022475677   -1.659523771432   -0.714841686033
