22

 H    5.641780563526   -0.449704497053   -0.881066690106
 H    4.836040563526   -1.791064497053   -1.792576690106
 H    4.956820563526   -1.907134497053   -0.019446690106
 C    4.868010563526   -1.209104497053   -0.857846690106
 S    3.210770563526   -0.424344497053   -0.779566690106
 S    3.088940563526    0.267875502947    1.218643309894
 C    4.755750563526    0.971185502947    1.527883309894
 H    5.480460563526    0.174785502947    1.655783309894
 H    4.624290563526    1.558145502947    2.450563309894
 H    4.993950563526    1.660625502947    0.711703309894
CS   -0.016219436474    1.116875502947    2.078153309894
CS    0.215860563526   -1.121824497053   -2.064246690106
 S   -3.493067890704    0.431343773497    0.759902824471
 S   -3.371237867801   -0.260876356636   -1.238307551180
 C   -5.150302877680    1.216100572913    0.838187344725
 H   -5.924074725381    0.456689930412    0.861411043012
 H   -5.118338812901    1.798055916731    1.772928330220
 H   -5.239126079319    1.914126539942   -0.000209870624
 C   -5.038049889449   -0.964189881365   -1.547555186614
 H   -5.762759498674   -0.167789449611   -1.675450679496
 H   -4.906588080668   -1.551142541923   -2.470230852000
 H   -5.276237092561   -1.653632398997   -0.731374625675
