22

 H    5.662436425386   -0.450217498220   -0.879627056572
 H    4.856696425386   -1.791577498220   -1.791137056572
 H    4.977476425386   -1.907647498220   -0.018007056572
 C    4.888666425386   -1.209617498220   -0.856407056572
 S    3.231426425386   -0.424857498220   -0.778127056572
 S    3.109596425386    0.267362501780    1.220082943428
 C    4.776406425386    0.970672501780    1.529322943428
 H    5.501116425386    0.174272501780    1.657222943428
 H    4.644946425386    1.557632501780    2.452002943428
 H    5.014606425386    1.660112501780    0.713142943428
CS    0.004436425386    1.116362501780    2.079592943428
CS    0.236516425386   -1.122337498220   -2.062807056572
 S   -3.572139429665    0.433307564308    0.754391844590
 S   -3.450309406762   -0.258912565825   -1.243818531061
 C   -5.229374416642    1.218064363725    0.832676364844
 H   -6.003146264343    0.458653721224    0.855900063132
 H   -5.197410351863    1.800019707543    1.767417350339
 H   -5.318197618281    1.916090330753   -0.005720850504
 C   -5.117121428411   -0.962226090553   -1.553066166495
 H   -5.841831037636   -0.165825658800   -1.680961659377
 H   -4.985659619630   -1.549178751111   -2.475741831881
 H   -5.355308631523   -1.651668608185   -0.736885605556
