22

 H    5.683092287247   -0.450730499386   -0.878187423037
 H    4.877352287247   -1.792090499386   -1.789697423037
 H    4.998132287247   -1.908160499386   -0.016567423037
 C    4.909322287247   -1.210130499386   -0.854967423037
 S    3.252082287247   -0.425370499386   -0.776687423037
 S    3.130252287247    0.266849500614    1.221522576963
 C    4.797062287247    0.970159500614    1.530762576963
 H    5.521772287247    0.173759500614    1.658662576963
 H    4.665602287247    1.557119500614    2.453442576963
 H    5.035262287247    1.659599500614    0.714582576963
CS    0.025092287247    1.115849500614    2.081032576963
CS    0.257172287247   -1.122850499386   -2.061367423037
 S   -3.651210968627    0.435271355120    0.748880864709
 S   -3.529380945724   -0.256948775013   -1.249329510941
 C   -5.308445955603    1.220028154536    0.827165384963
 H   -6.082217803304    0.460617512035    0.850389083251
 H   -5.276481890824    1.801983498354    1.761906370458
 H   -5.397269157242    1.918054121565   -0.011231830385
 C   -5.196192967372   -0.960262299742   -1.558577146375
 H   -5.920902576597   -0.163861867988   -1.686472639258
 H   -5.064731158591   -1.547214960300   -2.481252811762
 H   -5.434380170484   -1.649704817374   -0.742396585437
