22

 H    5.827683320268   -0.454321507552   -0.868109988294
 H    5.021943320268   -1.795681507552   -1.779619988294
 H    5.142723320268   -1.911751507552   -0.006489988294
 C    5.053913320268   -1.213721507552   -0.844889988294
 S    3.396673320268   -0.428961507552   -0.766609988294
 S    3.274843320268    0.263258492448    1.231600011706
 C    4.941653320268    0.966568492448    1.540840011706
 H    5.666363320268    0.170168492448    1.668740011706
 H    4.810193320268    1.553528492448    2.463520011706
 H    5.179853320268    1.656008492448    0.724660011706
CS    0.169683320268    1.112258492448    2.091110011706
CS    0.401763320268   -1.126441507552   -2.051289988294
 S   -4.204711741357    0.449017890800    0.710304005544
 S   -4.082881718454   -0.243202239332   -1.287906370107
 C   -5.861946728334    1.233774690217    0.788588525798
 H   -6.635718576035    0.474364047716    0.811812224085
 H   -5.829982663555    1.815730034035    1.723329511293
 H   -5.950769929973    1.931800657245   -0.049808689550
 C   -5.749693740103   -0.946515764061   -1.597154005541
 H   -6.474403349328   -0.150115332307   -1.725049498423
 H   -5.618231931322   -1.533468424619   -2.519829670927
 H   -5.987880943215   -1.635958281693   -0.780973444602
