22

 H    5.868995043988   -0.455347509885   -0.865230721224
 H    5.063255043988   -1.796707509885   -1.776740721224
 H    5.184035043988   -1.912777509885   -0.003610721224
 C    5.095225043988   -1.214747509885   -0.842010721224
 S    3.437985043988   -0.429987509885   -0.763730721224
 S    3.316155043988    0.262232490115    1.234479278776
 C    4.982965043988    0.965542490115    1.543719278776
 H    5.707675043988    0.169142490115    1.671619278776
 H    4.851505043988    1.552502490115    2.466399278776
 H    5.221165043988    1.654982490115    0.727539278776
CS    0.210995043988    1.111232490115    2.093989278776
CS    0.443075043988   -1.127467509885   -2.048410721224
 S   -4.362854819280    0.452945472424    0.699282045782
 S   -4.241024796377   -0.239274657709   -1.298928329868
 C   -6.020089806257    1.237702271840    0.777566566037
 H   -6.793861653958    0.478291629339    0.800790264324
 H   -5.988125741477    1.819657615658    1.712307551531
 H   -6.108913007896    1.935728238868   -0.060830649312
 C   -5.907836818026   -0.942588182438   -1.608175965302
 H   -6.632546427251   -0.146187750684   -1.736071458185
 H   -5.776375009245   -1.529540842996   -2.530851630689
 H   -6.146024021138   -1.632030700070   -0.791995404364
