22

 H    5.910306767709   -0.456373512218   -0.862351454155
 H    5.104566767709   -1.797733512218   -1.773861454155
 H    5.225346767709   -1.913803512218   -0.000731454155
 C    5.136536767709   -1.215773512218   -0.839131454155
 S    3.479296767709   -0.431013512218   -0.760851454155
 S    3.357466767709    0.261206487782    1.237358545845
 C    5.024276767709    0.964516487782    1.546598545845
 H    5.748986767709    0.168116487782    1.674498545845
 H    4.892816767709    1.551476487782    2.469278545845
 H    5.262476767709    1.653956487782    0.730418545845
CS    0.252306767709    1.110206487782    2.096868545845
CS    0.484386767709   -1.128493512218   -2.045531454155
 S   -4.520997897203    0.456873054047    0.688260086021
 S   -4.399167874300   -0.235347076086   -1.309950289630
 C   -6.178232884180    1.241629853463    0.766544606275
 H   -6.952004731881    0.482219210962    0.789768304562
 H   -6.146268819400    1.823585197281    1.701285591770
 H   -6.267056085819    1.939655820492   -0.071852609074
 C   -6.065979895949   -0.938660600815   -1.619197925064
 H   -6.790689505174   -0.142260169061   -1.747093417946
 H   -5.934518087168   -1.525613261373   -2.541873590450
 H   -6.304167099061   -1.628103118447   -0.803017364125
