22

 H    5.972274353289   -0.457912515717   -0.858032553551
 H    5.166534353289   -1.799272515717   -1.769542553551
 H    5.287314353289   -1.915342515717    0.003587446449
 C    5.198504353289   -1.217312515717   -0.834812553551
 S    3.541264353289   -0.432552515717   -0.756532553551
 S    3.419434353289    0.259667484283    1.241677446449
 C    5.086244353289    0.962977484283    1.550917446449
 H    5.810954353289    0.166577484283    1.678817446449
 H    4.954784353289    1.549937484283    2.473597446449
 H    5.324444353289    1.652417484283    0.734737446449
CS    0.314274353289    1.108667484283    2.101187446449
CS    0.546354353289   -1.130032515717   -2.041212553551
 S   -4.758212514088    0.462764426481    0.671727146378
 S   -4.636382491184   -0.229455703652   -1.326483229272
 C   -6.415447501064    1.247521225897    0.750011666633
 H   -7.189219348765    0.488110583397    0.773235364920
 H   -6.383483436285    1.829476569716    1.684752652128
 H   -6.504270702703    1.945547192926   -0.088385548716
 C   -6.303194512833   -0.932769228380   -1.635730864706
 H   -7.027904122058   -0.136368796627   -1.763626357588
 H   -6.171732704052   -1.519721888938   -2.558406530092
 H   -6.541381715945   -1.622211746013   -0.819550303767
