22

 H    5.992930215149   -0.458425516884   -0.856592920016
 H    5.187190215149   -1.799785516884   -1.768102920016
 H    5.307970215149   -1.915855516884    0.005027079984
 C    5.219160215149   -1.217825516884   -0.833372920016
 S    3.561920215149   -0.433065516884   -0.755092920016
 S    3.440090215149    0.259154483116    1.243117079984
 C    5.106900215149    0.962464483116    1.552357079984
 H    5.831610215149    0.166064483116    1.680257079984
 H    4.975440215149    1.549424483116    2.475037079984
 H    5.345100215149    1.651904483116    0.736177079984
CS    0.334930215149    1.108154483116    2.102627079984
CS    0.567010215149   -1.130545516884   -2.039772920016
 S   -4.837284053049    0.464728217293    0.666216166498
 S   -4.715454030146   -0.227491912840   -1.331994209153
 C   -6.494519040026    1.249485016709    0.744500686752
 H   -7.268290887727    0.490074374208    0.767724385039
 H   -6.462554975246    1.831440360527    1.679241672247
 H   -6.583342241665    1.947510983738   -0.093896528597
 C   -6.382266051795   -0.930805437569   -1.641241844587
 H   -7.106975661020   -0.134405005815   -1.769137337469
 H   -6.250804243014   -1.517758098127   -2.563917509973
 H   -6.620453254907   -1.620247955201   -0.825061283648
