22

 H    6.013586077010   -0.458938518050   -0.855153286481
 H    5.207846077010   -1.800298518050   -1.766663286481
 H    5.328626077010   -1.916368518050    0.006466713519
 C    5.239816077010   -1.218338518050   -0.831933286481
 S    3.582576077010   -0.433578518050   -0.753653286481
 S    3.460746077010    0.258641481950    1.244556713519
 C    5.127556077010    0.961951481950    1.553796713519
 H    5.852266077010    0.165551481950    1.681696713519
 H    4.996096077010    1.548911481950    2.476476713519
 H    5.365756077010    1.651391481950    0.737616713519
CS    0.355586077010    1.107641481950    2.104066713519
CS    0.587666077010   -1.131058518050   -2.038333286481
 S   -4.916355592011    0.466692008104    0.660705186617
 S   -4.794525569107   -0.225528122029   -1.337505189034
 C   -6.573590578987    1.251448807520    0.738989706871
 H   -7.347362426688    0.492038165020    0.762213405158
 H   -6.541626514208    1.833404151339    1.673730692366
 H   -6.662413780626    1.949474774549   -0.099407508477
 C   -6.461337590756   -0.928841646757   -1.646752824468
 H   -7.186047199981   -0.132441215004   -1.774648317350
 H   -6.329875781975   -1.515794307315   -2.569428489854
 H   -6.699524793868   -1.618284164390   -0.830572263529
