22

 H    6.054897800730   -0.459964520383   -0.852274019412
 H    5.249157800730   -1.801324520383   -1.763784019412
 H    5.369937800730   -1.917394520383    0.009345980588
 C    5.281127800730   -1.219364520383   -0.829054019412
 S    3.623887800730   -0.434604520383   -0.750774019412
 S    3.502057800730    0.257615479617    1.247435980588
 C    5.168867800730    0.960925479617    1.556675980588
 H    5.893577800730    0.164525479617    1.684575980588
 H    5.037407800730    1.547885479617    2.479355980588
 H    5.407067800730    1.650365479617    0.740495980588
CS    0.396897800730    1.106615479617    2.106945980588
CS    0.628977800730   -1.132084520383   -2.035454019412
 S   -5.074498669934    0.470619589727    0.649683226855
 S   -4.952668647030   -0.221600540406   -1.348527148795
 C   -6.731733656910    1.255376389143    0.727967747110
 H   -7.505505504611    0.495965746643    0.751191445397
 H   -6.699769592131    1.837331732962    1.662708732604
 H   -6.820556858549    1.953402356172   -0.110429468239
 C   -6.619480668679   -0.924914065134   -1.657774784229
 H   -7.344190277904   -0.128513633381   -1.785670277112
 H   -6.488018859898   -1.511866725692   -2.580450449615
 H   -6.857667871791   -1.614356582767   -0.841594223290
