22

 H    6.075553662590   -0.460477521550   -0.850834385877
 H    5.269813662590   -1.801837521550   -1.762344385877
 H    5.390593662590   -1.917907521550    0.010785614123
 C    5.301783662590   -1.219877521550   -0.827614385877
 S    3.644543662590   -0.435117521550   -0.749334385877
 S    3.522713662590    0.257102478450    1.248875614123
 C    5.189523662590    0.960412478450    1.558115614123
 H    5.914233662590    0.164012478450    1.686015614123
 H    5.058063662590    1.547372478450    2.480795614123
 H    5.427723662590    1.649852478450    0.741935614123
CS    0.417553662590    1.106102478450    2.108385614123
CS    0.649633662590   -1.132597521550   -2.034014385877
 S   -5.153570208895    0.472583380539    0.644172246975
 S   -5.031740185992   -0.219636749594   -1.354038128676
 C   -6.810805195871    1.257340179955    0.722456767229
 H   -7.584577043573    0.497929537454    0.745680465516
 H   -6.778841131092    1.839295523773    1.657197752724
 H   -6.899628397511    1.955366146984   -0.115940448120
 C   -6.698552207640   -0.922950274323   -1.663285764110
 H   -7.423261816866   -0.126549842569   -1.791181256992
 H   -6.567090398860   -1.509902934881   -2.585961429496
 H   -6.936739410753   -1.612392791955   -0.847105203171
