22

 H    6.096209524450   -0.460990522716   -0.849394752342
 H    5.290469524450   -1.802350522716   -1.760904752342
 H    5.411249524450   -1.918420522716    0.012225247658
 C    5.322439524450   -1.220390522716   -0.826174752342
 S    3.665199524450   -0.435630522716   -0.747894752342
 S    3.543369524450    0.256589477284    1.250315247658
 C    5.210179524450    0.959899477284    1.559555247658
 H    5.934889524450    0.163499477284    1.687455247658
 H    5.078719524450    1.546859477284    2.482235247658
 H    5.448379524450    1.649339477284    0.743375247658
CS    0.438209524450    1.105589477284    2.109825247658
CS    0.670289524450   -1.133110522716   -2.032574752342
 S   -5.232641747857    0.474547171350    0.638661267094
 S   -5.110811724953   -0.217672958783   -1.359549108557
 C   -6.889876734833    1.259303970766    0.716945787348
 H   -7.663648582534    0.499893328266    0.740169485635
 H   -6.857912670054    1.841259314585    1.651686772843
 H   -6.978699936472    1.957329937795   -0.121451428000
 C   -6.777623746602   -0.920986483511   -1.668796743991
 H   -7.502333355827   -0.124586051758   -1.796692236873
 H   -6.646161937821   -1.507939144069   -2.591472409377
 H   -7.015810949714   -1.610429001144   -0.852616183052
