22

 H    6.116865386310   -0.461503523883   -0.847955118808
 H    5.311125386310   -1.802863523883   -1.759465118808
 H    5.431905386310   -1.918933523883    0.013664881192
 C    5.343095386310   -1.220903523883   -0.824735118808
 S    3.685855386310   -0.436143523883   -0.746455118808
 S    3.564025386310    0.256076476117    1.251754881192
 C    5.230835386310    0.959386476117    1.560994881192
 H    5.955545386310    0.162986476117    1.688894881192
 H    5.099375386310    1.546346476117    2.483674881192
 H    5.469035386310    1.648826476117    0.744814881192
CS    0.458865386310    1.105076476117    2.111264881192
CS    0.690945386310   -1.133623523883   -2.031135118808
 S   -5.311713286818    0.476510962162    0.633150287213
 S   -5.189883263915   -0.215709167971   -1.365060088438
 C   -6.968948273794    1.261267761578    0.711434807467
 H   -7.742720121495    0.501857119077    0.734658505755
 H   -6.936984209015    1.843223105396    1.646175792962
 H   -7.057771475434    1.959293728607   -0.126962407881
 C   -6.856695285563   -0.919022692700   -1.674307723872
 H   -7.581404894789   -0.122622260946   -1.802203216754
 H   -6.725233476782   -1.505975353258   -2.596983389258
 H   -7.094882488676   -1.608465210332   -0.858127162933
