22

 H    6.158177110031   -0.462529526216   -0.845075851738
 H    5.352437110031   -1.803889526216   -1.756585851738
 H    5.473217110031   -1.919959526216    0.016544148262
 C    5.384407110031   -1.221929526216   -0.821855851738
 S    3.727167110031   -0.437169526216   -0.743575851738
 S    3.605337110031    0.255050473784    1.254634148262
 C    5.272147110031    0.958360473784    1.563874148262
 H    5.996857110031    0.161960473784    1.691774148262
 H    5.140687110031    1.545320473784    2.486554148262
 H    5.510347110031    1.647800473784    0.747694148262
CS    0.500177110031    1.104050473784    2.114144148262
CS    0.732257110031   -1.134649526216   -2.028255851738
 S   -5.469856364741    0.480438543785    0.622128327452
 S   -5.348026341838   -0.211781586348   -1.376082048199
 C   -7.127091351717    1.265195343201    0.700412847706
 H   -7.900863199418    0.505784700700    0.723636545993
 H   -7.095127286938    1.847150687019    1.635153833201
 H   -7.215914553357    1.963221310230   -0.137984367643
 C   -7.014838363486   -0.915095111077   -1.685329683633
 H   -7.739547972712   -0.118694679323   -1.813225176515
 H   -6.883376554705   -1.502047771635   -2.608005349019
 H   -7.253025566599   -1.604537628709   -0.869149122694
