22

 H    6.178832971891   -0.463042527382   -0.843636218204
 H    5.373092971891   -1.804402527382   -1.755146218204
 H    5.493872971891   -1.920472527382    0.017983781796
 C    5.405062971891   -1.222442527382   -0.820416218204
 S    3.747822971891   -0.437682527382   -0.742136218204
 S    3.625992971891    0.254537472618    1.256073781796
 C    5.292802971891    0.957847472618    1.565313781796
 H    6.017512971891    0.161447472618    1.693213781796
 H    5.161342971891    1.544807472618    2.487993781796
 H    5.531002971891    1.647287472618    0.749133781796
CS    0.520832971891    1.103537472618    2.115583781796
CS    0.752912971891   -1.135162527382   -2.026816218204
 S   -5.548927903703    0.482402334596    0.616617347571
 S   -5.427097880799   -0.209817795537   -1.381593028080
 C   -7.206162890679    1.267159134013    0.694901867825
 H   -7.979934738380    0.507748491512    0.718125566112
 H   -7.174198825900    1.849114477831    1.629642853320
 H   -7.294986092318    1.965185101041   -0.143495347524
 C   -7.093909902448   -0.913131320265   -1.690840663514
 H   -7.818619511673   -0.116730888512   -1.818736156396
 H   -6.962448093667   -1.500083980823   -2.613516328900
 H   -7.332097105560   -1.602573837897   -0.874660102575
