22

 H    6.199488833751   -0.463555528549   -0.842196584669
 H    5.393748833751   -1.804915528549   -1.753706584669
 H    5.514528833751   -1.920985528549    0.019423415331
 C    5.425718833751   -1.222955528549   -0.818976584669
 S    3.768478833751   -0.438195528549   -0.740696584669
 S    3.646648833751    0.254024471451    1.257513415331
 C    5.313458833751    0.957334471451    1.566753415331
 H    6.038168833751    0.160934471451    1.694653415331
 H    5.181998833751    1.544294471451    2.489433415331
 H    5.551658833751    1.646774471451    0.750573415331
CS    0.541488833751    1.103024471451    2.117023415331
CS    0.773568833751   -1.135675528549   -2.025376584669
 S   -5.627999442664    0.484366125408    0.611106367690
 S   -5.506169419761   -0.207854004725   -1.387104007961
 C   -7.285234429640    1.269122924824    0.689390887944
 H   -8.059006277341    0.509712282323    0.712614586232
 H   -7.253270364861    1.851078268642    1.624131873439
 H   -7.374057631280    1.967148891853   -0.149006327404
 C   -7.172981441409   -0.911167529454   -1.696351643395
 H   -7.897691050635   -0.114767097700   -1.824247136277
 H   -7.041519632628   -1.498120190012   -2.619027308781
 H   -7.411168644522   -1.600610047086   -0.880171082456
