22

 H    6.282112281192   -0.465607533215   -0.836438050530
 H    5.476372281192   -1.806967533215   -1.747948050530
 H    5.597152281192   -1.923037533215    0.025181949470
 C    5.508342281192   -1.225007533215   -0.813218050530
 S    3.851102281192   -0.440247533215   -0.734938050530
 S    3.729272281192    0.251972466785    1.263271949470
 C    5.396082281192    0.955282466785    1.572511949470
 H    6.120792281192    0.158882466785    1.700411949470
 H    5.264622281192    1.542242466785    2.495191949470
 H    5.634282281192    1.644722466785    0.756331949470
CS    0.624112281192    1.100972466785    2.122781949470
CS    0.856192281192   -1.137727533215   -2.019618050530
 S   -5.944285598510    0.492221288654    0.589062448167
 S   -5.822455575607   -0.199998841479   -1.409147927484
 C   -7.601520585486    1.276978088070    0.667346968421
 H   -8.375292433187    0.517567445570    0.690570666708
 H   -7.569556520707    1.858933431889    1.602087953916
 H   -7.690343787125    1.975004055099   -0.171050246927
 C   -7.489267597255   -0.903312366208   -1.718395562918
 H   -8.213977206481   -0.106911934454   -1.846291055800
 H   -7.357805788474   -1.490265026766   -2.641071228304
 H   -7.727454800368   -1.592754883840   -0.902215001979
