22

 H    6.302768143052   -0.466120534382   -0.834998416995
 H    5.497028143052   -1.807480534382   -1.746508416995
 H    5.617808143052   -1.923550534382    0.026621583005
 C    5.528998143052   -1.225520534382   -0.811778416995
 S    3.871758143052   -0.440760534382   -0.733498416995
 S    3.749928143052    0.251459465618    1.264711583005
 C    5.416738143052    0.954769465618    1.573951583005
 H    6.141448143052    0.158369465618    1.701851583005
 H    5.285278143052    1.541729465618    2.496631583005
 H    5.654938143052    1.644209465618    0.757771583005
CS    0.644768143052    1.100459465618    2.124221583005
CS    0.876848143052   -1.138240534382   -2.018178416995
 S   -6.023357137471    0.494185079465    0.583551468286
 S   -5.901527114568   -0.198035050668   -1.414658907365
 C   -7.680592124448    1.278941878882    0.661835988540
 H   -8.454363972149    0.519531236381    0.685059686828
 H   -7.648628059669    1.860897222700    1.596576974035
 H   -7.769415326087    1.976967845910   -0.176561226808
 C   -7.568339136217   -0.901348575396   -1.723906542799
 H   -8.293048745442   -0.104948143643   -1.851802035681
 H   -7.436877327436   -1.488301235954   -2.646582208185
 H   -7.806526339329   -1.590791093028   -0.907725981860
