22

 H    6.323424004912   -0.466633535548   -0.833558783460
 H    5.517684004912   -1.807993535548   -1.745068783460
 H    5.638464004912   -1.924063535548    0.028061216540
 C    5.549654004912   -1.226033535548   -0.810338783460
 S    3.892414004912   -0.441273535548   -0.732058783460
 S    3.770584004912    0.250946464452    1.266151216540
 C    5.437394004912    0.954256464452    1.575391216540
 H    6.162104004912    0.157856464452    1.703291216540
 H    5.305934004912    1.541216464452    2.498071216540
 H    5.675594004912    1.643696464452    0.759211216540
CS    0.665424004912    1.099946464452    2.125661216540
CS    0.897504004912   -1.138753535548   -2.016738783460
 S   -6.102428676433    0.496148870277    0.578040488405
 S   -5.980598653530   -0.196071259856   -1.420169887245
 C   -7.759663663409    1.280905669693    0.656325008660
 H   -8.533435511110    0.521495027193    0.679548706947
 H   -7.727699598630    1.862861013512    1.591065994154
 H   -7.848486865048    1.978931636722   -0.182072206689
 C   -7.647410675178   -0.899384784584   -1.729417522679
 H   -8.372120284404   -0.102984352831   -1.857313015562
 H   -7.515948866397   -1.486337445143   -2.652093188065
 H   -7.885597878291   -1.588827302217   -0.913236961740
