9

 C   -1.078655311546   -1.234972818155    0.000000000000
 H   -2.057582311546   -0.743184818155    0.000000000000
 H   -0.971509311546   -1.874781818155    0.888272000000
 H   -0.971509311546   -1.874781818155   -0.888272000000
 C    0.005971688454   -0.189388818155    0.000000000000
 O   -0.155132311546    1.020162181845    0.000000000000
 O    1.248257688454   -0.766396818155    0.000000000000
 H    1.882793688454   -0.027833818155    0.000000000000
LI   -0.353173207695    2.507031309728    0.000000000000
