9

 C   -1.074509980295   -1.266095506357    0.000000000000
 H   -2.053436980295   -0.774307506357    0.000000000000
 H   -0.967363980295   -1.905904506357    0.888272000000
 H   -0.967363980295   -1.905904506357   -0.888272000000
 C    0.010117019705   -0.220511506357    0.000000000000
 O   -0.150986980295    0.989039493643    0.000000000000
 O    1.252403019705   -0.797519506357    0.000000000000
 H    1.886939019705   -0.058956506357    0.000000000000
LI   -0.388636055674    2.773282447103    0.000000000000
