9

 C   -1.073128203211   -1.276469735757    0.000000000000
 H   -2.052055203211   -0.784681735757    0.000000000000
 H   -0.965982203211   -1.916278735757    0.888272000000
 H   -0.965982203211   -1.916278735757   -0.888272000000
 C    0.011498796789   -0.230885735757    0.000000000000
 O   -0.149605203211    0.978665264243    0.000000000000
 O    1.253784796789   -0.807893735757    0.000000000000
 H    1.888320796789   -0.069330735757    0.000000000000
LI   -0.400457005000    2.862032826228    0.000000000000
