9

 C   -1.068982871960   -1.307592423959    0.000000000000
 H   -2.047909871960   -0.815804423959    0.000000000000
 H   -0.961836871960   -1.947401423959    0.888272000000
 H   -0.961836871960   -1.947401423959   -0.888272000000
 C    0.015644128040   -0.262008423959    0.000000000000
 O   -0.145459871960    0.947542576041    0.000000000000
 O    1.257930128040   -0.839016423959    0.000000000000
 H    1.892466128040   -0.100453423959    0.000000000000
LI   -0.435919852979    3.128283963603    0.000000000000
