9

 C   -1.060692209458   -1.369837800362    0.000000000000
 H   -2.039619209458   -0.878049800362    0.000000000000
 H   -0.953546209458   -2.009646800362    0.888272000000
 H   -0.953546209458   -2.009646800362   -0.888272000000
 C    0.023934790542   -0.324253800362    0.000000000000
 O   -0.137169209458    0.885297199638    0.000000000000
 O    1.266220790542   -0.901261800362    0.000000000000
 H    1.900756790542   -0.162698800362    0.000000000000
LI   -0.506845548937    3.660786238354    0.000000000000
