9

 C   -1.057928655291   -1.390586259163    0.000000000000
 H   -2.036855655291   -0.898798259163    0.000000000000
 H   -0.950782655291   -2.030395259163    0.888272000000
 H   -0.950782655291   -2.030395259163   -0.888272000000
 C    0.026698344709   -0.345002259163    0.000000000000
 O   -0.134405655291    0.864548740837    0.000000000000
 O    1.268984344709   -0.922010259163    0.000000000000
 H    1.903520344709   -0.183447259163    0.000000000000
LI   -0.530487447589    3.838286996604    0.000000000000
