9

 C   -1.053783324039   -1.421708947364    0.000000000000
 H   -2.032710324039   -0.929920947364    0.000000000000
 H   -0.946637324039   -2.061517947364    0.888272000000
 H   -0.946637324039   -2.061517947364   -0.888272000000
 C    0.030843675961   -0.376124947364    0.000000000000
 O   -0.130260324039    0.833426052636    0.000000000000
 O    1.273129675961   -0.953132947364    0.000000000000
 H    1.907665675961   -0.214569947364    0.000000000000
LI   -0.565950295568    4.104538133979    0.000000000000
