9

 C   -1.045492661537   -1.483954323767    0.000000000000
 H   -2.024419661537   -0.992166323767    0.000000000000
 H   -0.938346661537   -2.123763323767    0.888272000000
 H   -0.938346661537   -2.123763323767   -0.888272000000
 C    0.039134338463   -0.438370323767    0.000000000000
 O   -0.121969661537    0.771180676233    0.000000000000
 O    1.281420338463   -1.015378323767    0.000000000000
 H    1.915956338463   -0.276815323767    0.000000000000
LI   -0.636875991526    4.637040408729    0.000000000000
