9

 C   -1.042729107370   -1.504702782568    0.000000000000
 H   -2.021656107370   -1.012914782568    0.000000000000
 H   -0.935583107370   -2.144511782568    0.888272000000
 H   -0.935583107370   -2.144511782568   -0.888272000000
 C    0.041897892630   -0.459118782568    0.000000000000
 O   -0.119206107370    0.750432217432    0.000000000000
 O    1.284183892630   -1.036126782568    0.000000000000
 H    1.918719892630   -0.297563782568    0.000000000000
LI   -0.660517890179    4.814541166979    0.000000000000
