9

 C   -1.041347330286   -1.515077011969    0.000000000000
 H   -2.020274330286   -1.023289011969    0.000000000000
 H   -0.934201330286   -2.154886011969    0.888272000000
 H   -0.934201330286   -2.154886011969   -0.888272000000
 C    0.043279669714   -0.469493011969    0.000000000000
 O   -0.117824330286    0.740057988031    0.000000000000
 O    1.285565669714   -1.046501011969    0.000000000000
 H    1.920101669714   -0.307938011969    0.000000000000
LI   -0.672338839505    4.903291546104    0.000000000000
