9

 C   -1.038583776119   -1.535825470770    0.000000000000
 H   -2.017510776119   -1.044037470770    0.000000000000
 H   -0.931437776119   -2.175634470770    0.888272000000
 H   -0.931437776119   -2.175634470770   -0.888272000000
 C    0.046043223881   -0.490241470770    0.000000000000
 O   -0.115060776119    0.719309529230    0.000000000000
 O    1.288329223881   -1.067249470770    0.000000000000
 H    1.922865223881   -0.328686470770    0.000000000000
LI   -0.695980738158    5.080792304355    0.000000000000
