9

 C   -1.033056667784   -1.577322388372    0.000000000000
 H   -2.011983667784   -1.085534388372    0.000000000000
 H   -0.925910667784   -2.217131388372    0.888272000000
 H   -0.925910667784   -2.217131388372   -0.888272000000
 C    0.051570332216   -0.531738388372    0.000000000000
 O   -0.109533667784    0.677812611628    0.000000000000
 O    1.293856332216   -1.108746388372    0.000000000000
 H    1.928392332216   -0.370183388372    0.000000000000
LI   -0.743264535463    5.435793820855    0.000000000000
