9

 C   -1.027529559450   -1.618819305974    0.000000000000
 H   -2.006456559450   -1.127031305974    0.000000000000
 H   -0.920383559450   -2.258628305974    0.888272000000
 H   -0.920383559450   -2.258628305974   -0.888272000000
 C    0.057097440550   -0.573235305974    0.000000000000
 O   -0.104006559450    0.636315694026    0.000000000000
 O    1.299383440550   -1.150243305974    0.000000000000
 H    1.933919440550   -0.411680305974    0.000000000000
LI   -0.790548332768    5.790795337355    0.000000000000
