9

 C   -1.026147782366   -1.629193535374    0.000000000000
 H   -2.005074782366   -1.137405535374    0.000000000000
 H   -0.919001782366   -2.269002535374    0.888272000000
 H   -0.919001782366   -2.269002535374   -0.888272000000
 C    0.058479217634   -0.583609535374    0.000000000000
 O   -0.102624782366    0.625941464626    0.000000000000
 O    1.300765217634   -1.160617535374    0.000000000000
 H    1.935301217634   -0.422054535374    0.000000000000
LI   -0.802369282094    5.879545716480    0.000000000000
