9

 C   -1.024766005282   -1.639567764775    0.000000000000
 H   -2.003693005282   -1.147779764775    0.000000000000
 H   -0.917620005282   -2.279376764775    0.888272000000
 H   -0.917620005282   -2.279376764775   -0.888272000000
 C    0.059860994718   -0.593983764775    0.000000000000
 O   -0.101243005282    0.615567235225    0.000000000000
 O    1.302146994718   -1.170991764775    0.000000000000
 H    1.936682994718   -0.432428764775    0.000000000000
LI   -0.814190231420    5.968296095605    0.000000000000
