9

 C   -1.020620674031   -1.670690452976    0.000000000000
 H   -1.999547674031   -1.178902452976    0.000000000000
 H   -0.913474674031   -2.310499452976    0.888272000000
 H   -0.913474674031   -2.310499452976   -0.888272000000
 C    0.064006325969   -0.625106452976    0.000000000000
 O   -0.097097674031    0.584444547024    0.000000000000
 O    1.306292325969   -1.202114452976    0.000000000000
 H    1.940828325969   -0.463551452976    0.000000000000
LI   -0.849653079399    6.234547232980    0.000000000000
