9

 C   -1.019238896948   -1.681064682377    0.000000000000
 H   -1.998165896948   -1.189276682377    0.000000000000
 H   -0.912092896948   -2.320873682377    0.888272000000
 H   -0.912092896948   -2.320873682377   -0.888272000000
 C    0.065388103052   -0.635480682377    0.000000000000
 O   -0.095715896948    0.574070317623    0.000000000000
 O    1.307674103052   -1.212488682377    0.000000000000
 H    1.942210103052   -0.473925682377    0.000000000000
LI   -0.861474028726    6.323297612105    0.000000000000
