9

 C   -1.016475342780   -1.701813141178    0.000000000000
 H   -1.995402342780   -1.210025141178    0.000000000000
 H   -0.909329342780   -2.341622141178    0.888272000000
 H   -0.909329342780   -2.341622141178   -0.888272000000
 C    0.068151657220   -0.656229141178    0.000000000000
 O   -0.092952342780    0.553321858822    0.000000000000
 O    1.310437657220   -1.233237141178    0.000000000000
 H    1.944973657220   -0.494674141178    0.000000000000
LI   -0.885115927378    6.500798370355    0.000000000000
