9

 C   -1.008184680278   -1.764058517580    0.000000000000
 H   -1.987111680278   -1.272270517580    0.000000000000
 H   -0.901038680278   -2.403867517580    0.888272000000
 H   -0.901038680278   -2.403867517580   -0.888272000000
 C    0.076442319722   -0.718474517580    0.000000000000
 O   -0.084661680278    0.491076482420    0.000000000000
 O    1.318728319722   -1.295482517580    0.000000000000
 H    1.953264319722   -0.556919517580    0.000000000000
LI   -0.956041623336    7.033300645106    0.000000000000
