9

 C   -1.005421126111   -1.784806976381    0.000000000000
 H   -1.984348126111   -1.293018976381    0.000000000000
 H   -0.898275126111   -2.424615976381    0.888272000000
 H   -0.898275126111   -2.424615976381   -0.888272000000
 C    0.079205873889   -0.739222976381    0.000000000000
 O   -0.081898126111    0.470328023619    0.000000000000
 O    1.321491873889   -1.316230976381    0.000000000000
 H    1.956027873889   -0.577667976381    0.000000000000
LI   -0.979683521988    7.210801403356    0.000000000000
