9

 C   -1.004039349027   -1.795181205782    0.000000000000
 H   -1.982966349027   -1.303393205782    0.000000000000
 H   -0.896893349027   -2.434990205782    0.888272000000
 H   -0.896893349027   -2.434990205782   -0.888272000000
 C    0.080587650973   -0.749597205782    0.000000000000
 O   -0.080516349027    0.459953794218    0.000000000000
 O    1.322873650973   -1.326605205782    0.000000000000
 H    1.957409650973   -0.588042205782    0.000000000000
LI   -0.991504471315    7.299551782481    0.000000000000
