9

 C   -1.001275794860   -1.815929664583    0.000000000000
 H   -1.980202794860   -1.324141664583    0.000000000000
 H   -0.894129794860   -2.455738664583    0.888272000000
 H   -0.894129794860   -2.455738664583   -0.888272000000
 C    0.083351205140   -0.770345664583    0.000000000000
 O   -0.077752794860    0.439205335417    0.000000000000
 O    1.325637205140   -1.347353664583    0.000000000000
 H    1.960173205140   -0.608790664583    0.000000000000
LI   -1.015146369967    7.477052540731    0.000000000000
