9

 C   -0.997130463609   -1.847052352784    0.000000000000
 H   -1.976057463609   -1.355264352784    0.000000000000
 H   -0.889984463609   -2.486861352784    0.888272000000
 H   -0.889984463609   -2.486861352784   -0.888272000000
 C    0.087496536391   -0.801468352784    0.000000000000
 O   -0.073607463609    0.408082647216    0.000000000000
 O    1.329782536391   -1.378476352784    0.000000000000
 H    1.964318536391   -0.639913352784    0.000000000000
LI   -1.050609217946    7.743303678106    0.000000000000
