9

 C   -0.984694469856   -1.940420417389    0.000000000000
 H   -1.963621469856   -1.448632417389    0.000000000000
 H   -0.877548469856   -2.580229417389    0.888272000000
 H   -0.877548469856   -2.580229417389   -0.888272000000
 C    0.099932530144   -0.894836417389    0.000000000000
 O   -0.061171469856    0.314714582611    0.000000000000
 O    1.342218530144   -1.471844417389    0.000000000000
 H    1.976754530144   -0.733281417389    0.000000000000
LI   -1.156997761883    8.542057090232    0.000000000000
