9

 C   -0.981930915688   -1.961168876190    0.000000000000
 H   -1.960857915688   -1.469380876190    0.000000000000
 H   -0.874784915688   -2.600977876190    0.888272000000
 H   -0.874784915688   -2.600977876190   -0.888272000000
 C    0.102696084312   -0.915584876190    0.000000000000
 O   -0.058407915688    0.293966123810    0.000000000000
 O    1.344982084312   -1.492592876190    0.000000000000
 H    1.979518084312   -0.754029876190    0.000000000000
LI   -1.180639660535    8.719557848482    0.000000000000
