9

 C   -0.976403807354   -2.002665793792    0.000000000000
 H   -1.955330807354   -1.510877793792    0.000000000000
 H   -0.869257807354   -2.642474793792    0.888272000000
 H   -0.869257807354   -2.642474793792   -0.888272000000
 C    0.108223192646   -0.957081793792    0.000000000000
 O   -0.052880807354    0.252469206208    0.000000000000
 O    1.350509192646   -1.534089793792    0.000000000000
 H    1.985045192646   -0.795526793792    0.000000000000
LI   -1.227923457841    9.074559364982    0.000000000000
