9

 C   -0.968113144852   -2.064911170195    0.000000000000
 H   -1.947040144852   -1.573123170195    0.000000000000
 H   -0.860967144852   -2.704720170195    0.888272000000
 H   -0.860967144852   -2.704720170195   -0.888272000000
 C    0.116513855148   -1.019327170195    0.000000000000
 O   -0.044590144852    0.190223829805    0.000000000000
 O    1.358799855148   -1.596335170195    0.000000000000
 H    1.993335855148   -0.857772170195    0.000000000000
LI   -1.298849153798    9.607061639732    0.000000000000
