8

 C    1.629360004537   -1.293265251620    0.000000000000
 H    2.664860004537   -1.669353251620    0.000000000000
 H    1.096160004537   -1.673968251620    0.888337000000
 H    1.096160004537   -1.673968251620   -0.888337000000
 C    1.587594004537    0.262818748380    0.000000000000
 O    0.420398004537    0.769041748380    0.000000000000
 O    2.711665004537    0.858236748380    0.000000000000
CS   -0.704227815676   -0.064754848226    0.000000000000
