8

 C    2.018766714455   -1.004559458467    0.000000000000
 H    3.054266714455   -1.380647458467    0.000000000000
 H    1.485566714455   -1.385262458467    0.888337000000
 H    1.485566714455   -1.385262458467   -0.888337000000
 C    1.977000714455    0.551524541533    0.000000000000
 O    0.809804714455    1.057747541533    0.000000000000
 O    3.101071714455    1.146942541533    0.000000000000
CS   -0.877134015864   -0.192947353375    0.000000000000
