8

 C    2.575062014339   -0.592122611105    0.000000000000
 H    3.610562014339   -0.968210611105    0.000000000000
 H    2.041862014339   -0.972825611105    0.888337000000
 H    2.041862014339   -0.972825611105   -0.888337000000
 C    2.533296014339    0.963961388895    0.000000000000
 O    1.366100014339    1.470184388895    0.000000000000
 O    3.657367014339    1.559379388895    0.000000000000
CS   -1.124142873275   -0.376079503589    0.000000000000
