8

 C    2.630691544327   -0.550878926369    0.000000000000
 H    3.666191544327   -0.926966926369    0.000000000000
 H    2.097491544327   -0.931581926369    0.888337000000
 H    2.097491544327   -0.931581926369   -0.888337000000
 C    2.588925544327    1.005205073631    0.000000000000
 O    1.421729544327    1.511428073631    0.000000000000
 O    3.712996544327    1.600623073631    0.000000000000
CS   -1.148843759016   -0.394392718610    0.000000000000
