8

 C    2.686321074316   -0.509635241633    0.000000000000
 H    3.721821074316   -0.885723241633    0.000000000000
 H    2.153121074316   -0.890338241633    0.888337000000
 H    2.153121074316   -0.890338241633   -0.888337000000
 C    2.644555074316    1.046448758367    0.000000000000
 O    1.477359074316    1.552671758367    0.000000000000
 O    3.768626074316    1.641866758367    0.000000000000
CS   -1.173544644757   -0.412705933631    0.000000000000
