8

 C    3.075727784234   -0.220929448479    0.000000000000
 H    4.111227784234   -0.597017448479    0.000000000000
 H    2.542527784234   -0.601632448479    0.888337000000
 H    2.542527784234   -0.601632448479   -0.888337000000
 C    3.033961784234    1.335154551521    0.000000000000
 O    1.866765784234    1.841377551521    0.000000000000
 O    4.158032784234    1.930572551521    0.000000000000
CS   -1.346450844945   -0.540898438781    0.000000000000
