8

 C    3.131357314222   -0.179685763743    0.000000000000
 H    4.166857314222   -0.555773763743    0.000000000000
 H    2.598157314222   -0.560388763743    0.888337000000
 H    2.598157314222   -0.560388763743   -0.888337000000
 C    3.089591314222    1.376398236257    0.000000000000
 O    1.922395314222    1.882621236257    0.000000000000
 O    4.213662314222    1.971816236257    0.000000000000
CS   -1.371151730686   -0.559211653802    0.000000000000
