8

 C    3.242616374199   -0.097198394270    0.000000000000
 H    4.278116374199   -0.473286394270    0.000000000000
 H    2.709416374199   -0.477901394270    0.888337000000
 H    2.709416374199   -0.477901394270   -0.888337000000
 C    3.200850374199    1.458885605730    0.000000000000
 O    2.033654374199    1.965108605730    0.000000000000
 O    4.324921374199    2.054303605730    0.000000000000
CS   -1.420553502169   -0.595838083844    0.000000000000
