8

 C    3.298245904187   -0.055954709534    0.000000000000
 H    4.333745904187   -0.432042709534    0.000000000000
 H    2.765045904187   -0.436657709534    0.888337000000
 H    2.765045904187   -0.436657709534   -0.888337000000
 C    3.256479904187    1.500129290466    0.000000000000
 O    2.089283904187    2.006352290466    0.000000000000
 O    4.380550904187    2.095547290466    0.000000000000
CS   -1.445254387910   -0.614151298866    0.000000000000
