8

 C    3.409504964164    0.026532659938    0.000000000000
 H    4.445004964164   -0.349555340062    0.000000000000
 H    2.876304964164   -0.354170340062    0.888337000000
 H    2.876304964164   -0.354170340062   -0.888337000000
 C    3.367738964164    1.582616659938    0.000000000000
 O    2.200542964164    2.088839659938    0.000000000000
 O    4.491809964164    2.178034659938    0.000000000000
CS   -1.494656159392   -0.650777728908    0.000000000000
