8

 C    3.743282144094    0.273994768355    0.000000000000
 H    4.778782144094   -0.102093231645    0.000000000000
 H    3.210082144094   -0.106708231645    0.888337000000
 H    3.210082144094   -0.106708231645   -0.888337000000
 C    3.701516144094    1.830078768355    0.000000000000
 O    2.534320144094    2.336301768355    0.000000000000
 O    4.825587144094    2.425496768355    0.000000000000
CS   -1.642861473839   -0.760657019036    0.000000000000
