8

 C    4.355206973966    0.727675300454    0.000000000000
 H    5.390706973966    0.351587300454    0.000000000000
 H    3.822006973966    0.346972300454    0.888337000000
 H    3.822006973966    0.346972300454   -0.888337000000
 C    4.313440973966    2.283759300454    0.000000000000
 O    3.146244973966    2.789982300454    0.000000000000
 O    5.437511973966    2.879177300454    0.000000000000
CS   -1.914571216991   -0.962102384271    0.000000000000
