8

 C    4.410836503954    0.768918985190    0.000000000000
 H    5.446336503954    0.392830985190    0.000000000000
 H    3.877636503954    0.388215985190    0.888337000000
 H    3.877636503954    0.388215985190   -0.888337000000
 C    4.369070503954    2.325002985190    0.000000000000
 O    3.201874503954    2.831225985190    0.000000000000
 O    5.493141503954    2.920420985190    0.000000000000
CS   -1.939272102732   -0.980415599292    0.000000000000
