8

 C    4.466466033943    0.810162669926    0.000000000000
 H    5.501966033943    0.434074669926    0.000000000000
 H    3.933266033943    0.429459669926    0.888337000000
 H    3.933266033943    0.429459669926   -0.888337000000
 C    4.424700033943    2.366246669926    0.000000000000
 O    3.257504033943    2.872469669926    0.000000000000
 O    5.548771033943    2.961664669926    0.000000000000
CS   -1.963972988473   -0.998728814314    0.000000000000
