8

 C    4.522095563931    0.851406354662    0.000000000000
 H    5.557595563931    0.475318354662    0.000000000000
 H    3.988895563931    0.470703354662    0.888337000000
 H    3.988895563931    0.470703354662   -0.888337000000
 C    4.480329563931    2.407490354662    0.000000000000
 O    3.313133563931    2.913713354662    0.000000000000
 O    5.604400563931    3.002908354662    0.000000000000
CS   -1.988673874214   -1.017042029335    0.000000000000
