8

 C    5.245279453780    1.387574256233    0.000000000000
 H    6.280779453780    1.011486256233    0.000000000000
 H    4.712079453780    1.006871256233    0.888337000000
 H    4.712079453780    1.006871256233   -0.888337000000
 C    5.203513453780    2.943658256233    0.000000000000
 O    4.036317453780    3.449881256233    0.000000000000
 O    6.327584453780    3.539076256233    0.000000000000
CS   -2.309785388849   -1.255113824612    0.000000000000
