8

 C    5.634686163698    1.676280049386    0.000000000000
 H    6.670186163698    1.300192049386    0.000000000000
 H    5.101486163698    1.295577049386    0.888337000000
 H    5.101486163698    1.295577049386   -0.888337000000
 C    5.592920163698    3.232364049386    0.000000000000
 O    4.425724163698    3.738587049386    0.000000000000
 O    6.716991163698    3.827782049386    0.000000000000
CS   -2.482691589037   -1.383306329762    0.000000000000
