8

 C    6.302240523558    2.171204266221    0.000000000000
 H    7.337740523558    1.795116266221    0.000000000000
 H    5.769040523558    1.790501266221    0.888337000000
 H    5.769040523558    1.790501266221   -0.888337000000
 C    6.260474523558    3.727288266221    0.000000000000
 O    5.093278523558    4.233511266221    0.000000000000
 O    7.384545523558    4.322706266221    0.000000000000
CS   -2.779102217931   -1.603064910018    0.000000000000
