27

 P    1.260323906767   -1.392293256381    0.669750092414
 O    0.587913906767   -0.364303256381    1.601590092414
 O    0.882773906767   -1.262063256381   -0.819459907586
 O    2.908563906767   -1.426763256381    0.882070092414
 O    1.052983906767   -2.946293256381    1.221820092414
 C    3.539123906767   -0.198323256381    0.492900092414
 H    3.164393906767    0.641736743619    1.099690092414
 H    3.363593906767    0.009036743619   -0.574959907586
 H    4.615253906767   -0.325373256381    0.669270092414
 C   -0.322646093233   -3.353513256381    1.215990092414
 H   -0.732156093233   -3.329513256381    0.193240092414
 H   -0.924606093233   -2.703543256381    1.871230092414
 H   -0.349316093233   -4.382933256381    1.596600092414
NA   -0.530626093233    0.586186743619   -0.281979907586
 P   -1.162730139358    1.284478272237   -0.617886763623
 O   -2.810973362082    1.318954793068   -0.830209575998
 O   -0.955393008683    2.838483518373   -1.169963197484
 O   -0.490323328018    0.256493935769   -1.549726984069
 O   -0.785185837768    1.154256079025    0.871321828090
 C   -3.441530527759    0.090521428276   -0.441037401786
 H   -3.066806411012   -0.749539821837   -1.047827953778
 H   -3.266003265499   -0.116840860550    0.626825227851
 H   -4.517666755740    0.217566985907   -0.617414220032
 C    0.420238528170    3.245699089665   -1.164134320002
 H    0.829751559741    3.221704705189   -0.141373747782
 H    1.022195239736    2.595734193928   -1.819369610649
 H    0.446903591256    4.275117731911   -1.544740226298
