27

 P    1.318211076462   -1.456241779510    0.700511954004
 O    0.645801076462   -0.428251779510    1.632351954004
 O    0.940661076462   -1.326011779510   -0.788698045996
 O    2.966451076462   -1.490711779510    0.912831954004
 O    1.110871076462   -3.010241779510    1.252581954004
 C    3.597011076462   -0.262271779510    0.523661954004
 H    3.222281076462    0.577788220490    1.130451954004
 H    3.421481076462   -0.054911779510   -0.544198045996
 H    4.673141076462   -0.389321779510    0.700031954004
 C   -0.264758923538   -3.417461779510    1.246751954004
 H   -0.674268923538   -3.393461779510    0.224001954004
 H   -0.866718923538   -2.767491779510    1.901991954004
 H   -0.291428923538   -4.446881779510    1.627361954004
NA   -0.472738923538    0.522238220490   -0.251218045996
 P   -1.231263778888    1.360188054831   -0.654306273240
 O   -2.879507001612    1.394664575662   -0.866629085616
 O   -1.023926648213    2.914193300967   -1.206382707101
 O   -0.558856967548    0.332203718364   -1.586146493687
 O   -0.853719477298    1.229965861619    0.834902318473
 C   -3.510064167289    0.166231210871   -0.477456911404
 H   -3.135340050542   -0.673830039243   -1.084247463396
 H   -3.334536905029   -0.041131077955    0.590405718233
 H   -4.586200395270    0.293276768501   -0.653833729650
 C    0.351704888640    3.321408872259   -1.200553829620
 H    0.761217920211    3.297414487783   -0.177793257400
 H    0.953661600206    2.671443976522   -1.855789120267
 H    0.378369951726    4.350827514505   -1.581159735915
