27

 P    1.491872585548   -1.648087348898    0.792797538772
 O    0.819462585548   -0.620097348898    1.724637538772
 O    1.114322585548   -1.517857348898   -0.696412461228
 O    3.140112585548   -1.682557348898    1.005117538772
 O    1.284532585548   -3.202087348898    1.344867538772
 C    3.770672585548   -0.454117348898    0.615947538772
 H    3.395942585548    0.385942651102    1.222737538772
 H    3.595142585548   -0.246757348898   -0.451912461228
 H    4.846802585548   -0.581167348898    0.792317538772
 C   -0.091097414452   -3.609307348898    1.339037538772
 H   -0.500607414452   -3.585307348898    0.316287538772
 H   -0.693057414452   -2.959337348898    1.994277538772
 H   -0.117767414452   -4.638727348898    1.719647538772
NA   -0.299077414452    0.330392651102   -0.158932461228
 P   -1.436864697478    1.587317402614   -0.763564802094
 O   -3.085107920202    1.621793923445   -0.975887614469
 O   -1.229527566803    3.141322648750   -1.315641235954
 O   -0.764457886138    0.559333066146   -1.695405022540
 O   -1.059320395888    1.457095209402    0.725643789619
 C   -3.715665085879    0.393360558654   -0.586715440257
 H   -3.340940969132   -0.446700691460   -1.193505992249
 H   -3.540137823619    0.185998269827    0.481147189380
 H   -4.791801313859    0.520406116284   -0.763092258503
 C    0.146103970050    3.548538220042   -1.309812358473
 H    0.555617001621    3.524543835566   -0.287051786253
 H    0.748060681616    2.898573324305   -1.965047649120
 H    0.172769033136    4.577956862288   -1.690418264768
