27

 P    1.520816170395   -1.680061610463    0.808178469567
 O    0.848406170395   -0.652071610463    1.740018469567
 O    1.143266170395   -1.549831610463   -0.681031530433
 O    3.169056170395   -1.714531610463    1.020498469567
 O    1.313476170395   -3.234061610463    1.360248469567
 C    3.799616170395   -0.486091610463    0.631328469567
 H    3.424886170395    0.353968389537    1.238118469567
 H    3.624086170395   -0.278731610463   -0.436531530433
 H    4.875746170395   -0.613141610463    0.807698469567
 C   -0.062153829605   -3.641281610463    1.354418469567
 H   -0.471663829605   -3.617281610463    0.331668469567
 H   -0.664113829605   -2.991311610463    2.009658469567
 H   -0.088823829605   -4.670701610463    1.735028469567
NA   -0.270133829605    0.298418389537   -0.143551530433
 P   -1.471131517243    1.625172293911   -0.781774556902
 O   -3.119374739967    1.659648814742   -0.994097369278
 O   -1.263794386568    3.179177540047   -1.333850990763
 O   -0.798724705903    0.597187957443   -1.713614777349
 O   -1.093587215653    1.494950100699    0.707434034811
 C   -3.749931905644    0.431215449951   -0.604925195066
 H   -3.375207788897   -0.408845800163   -1.211715747058
 H   -3.574404643384    0.223853161125    0.462937434571
 H   -4.826068133624    0.558261007581   -0.781302013312
 C    0.111837150285    3.586393111339   -1.328022113282
 H    0.521350181856    3.562398726863   -0.305261541062
 H    0.713793861851    2.936428215602   -1.983257403929
 H    0.138502213371    4.615811753585   -1.708628019577
