27

 P    1.578703340091   -1.744010133592    0.838940331157
 O    0.906293340091   -0.716020133592    1.770780331157
 O    1.201153340091   -1.613780133592   -0.650269668843
 O    3.226943340091   -1.778480133592    1.051260331157
 O    1.371363340091   -3.298010133592    1.391010331157
 C    3.857503340091   -0.550040133592    0.662090331157
 H    3.482773340091    0.290019866408    1.268880331157
 H    3.681973340091   -0.342680133592   -0.405769668843
 H    4.933633340091   -0.677090133592    0.838460331157
 C   -0.004266659909   -3.705230133592    1.385180331157
 H   -0.413776659909   -3.681230133592    0.362430331157
 H   -0.606226659909   -3.055260133592    2.040420331157
 H   -0.030936659909   -4.734650133592    1.765790331157
NA   -0.212246659909    0.234469866408   -0.112789668843
 P   -1.539665156773    1.700882076505   -0.818194066520
 O   -3.187908379497    1.735358597336   -1.030516878896
 O   -1.332328026098    3.254887322642   -1.370270500381
 O   -0.867258345433    0.672897740038   -1.750034286966
 O   -1.162120855183    1.570659883293    0.671014525193
 C   -3.818465545174    0.506925232545   -0.641344704684
 H   -3.443741428427   -0.333136017568   -1.248135256675
 H   -3.642938282914    0.299562943719    0.426517924954
 H   -4.894601773154    0.633970790175   -0.817721522929
 C    0.043303510755    3.662102893933   -1.364441622899
 H    0.452816542326    3.638108509457   -0.341681050679
 H    0.645260222321    3.012137998196   -2.019676913547
 H    0.069968573841    4.691521536179   -1.745047529195
