27

 P    1.636590509786   -1.807958656721    0.869702192747
 O    0.964180509786   -0.779968656721    1.801542192747
 O    1.259040509786   -1.677728656721   -0.619507807253
 O    3.284830509786   -1.842428656721    1.082022192747
 O    1.429250509786   -3.361958656721    1.421772192747
 C    3.915390509786   -0.613988656721    0.692852192747
 H    3.540660509786    0.226071343279    1.299642192747
 H    3.739860509786   -0.406628656721   -0.375007807253
 H    4.991520509786   -0.741038656721    0.869222192747
 C    0.053620509786   -3.769178656721    1.415942192747
 H   -0.355889490214   -3.745178656721    0.393192192747
 H   -0.548339490214   -3.119208656721    2.071182192747
 H    0.026950509786   -4.798598656721    1.796552192747
NA   -0.154359490214    0.170521343279   -0.082027807253
 P   -1.608198796303    1.776591859100   -0.854613576138
 O   -3.256442019027    1.811068379930   -1.066936388514
 O   -1.400861665628    3.330597105236   -1.406690009999
 O   -0.935791984963    0.748607522632   -1.786453796584
 O   -1.230654494713    1.646369665887    0.634595015575
 C   -3.886999184704    0.582635015139   -0.677764214301
 H   -3.512275067957   -0.257426234974   -1.284554766293
 H   -3.711471922443    0.375272726313    0.390098415336
 H   -4.963135412684    0.709680572769   -0.854141032547
 C   -0.025230128775    3.737812676528   -1.400861132517
 H    0.384282902796    3.713818292052   -0.378100560297
 H    0.576726582791    3.087847780790   -2.056096423164
 H    0.001434934311    4.767231318773   -1.781467038813
