27

 P    1.694477679481   -1.871907179851    0.900464054336
 O    1.022067679481   -0.843917179851    1.832304054336
 O    1.316927679481   -1.741677179851   -0.588745945664
 O    3.342717679481   -1.906377179851    1.112784054336
 O    1.487137679481   -3.425907179851    1.452534054336
 C    3.973277679481   -0.677937179851    0.723614054336
 H    3.598547679481    0.162122820149    1.330404054336
 H    3.797747679481   -0.470577179851   -0.344245945664
 H    5.049407679481   -0.804987179851    0.899984054336
 C    0.111507679481   -3.833127179851    1.446704054336
 H   -0.298002320519   -3.809127179851    0.423954054336
 H   -0.490452320519   -3.183157179851    2.101944054336
 H    0.084837679481   -4.862547179851    1.827314054336
NA   -0.096472320519    0.106572820149   -0.051265945664
 P   -1.676732435833    1.852301641694   -0.891033085756
 O   -3.324975658557    1.886778162525   -1.103355898131
 O   -1.469395305158    3.406306887830   -1.443109519616
 O   -1.004325624493    0.824317305226   -1.822873306202
 O   -1.299188134243    1.722079448482    0.598175505957
 C   -3.955532824234    0.658344797733   -0.714183723919
 H   -3.580808707487   -0.181716452380   -1.320974275911
 H   -3.780005561973    0.450982508907    0.353678905718
 H   -5.031669052214    0.785390355364   -0.890560542165
 C   -0.093763768305    3.813522459122   -1.437280642135
 H    0.315749263266    3.789528074646   -0.414520069915
 H    0.508192943261    3.163557563385   -2.092515932782
 H   -0.067098705219    4.842941101368   -1.817886548430
