27

 P    1.839195603719   -2.031778487674    0.977368708310
 O    1.166785603719   -1.003788487674    1.909208708310
 O    1.461645603719   -1.901548487674   -0.511841291690
 O    3.487435603719   -2.066248487674    1.189688708310
 O    1.631855603719   -3.585778487674    1.529438708310
 C    4.117995603719   -0.837808487674    0.800518708310
 H    3.743265603719    0.002251512326    1.407308708310
 H    3.942465603719   -0.630448487674   -0.267341291690
 H    5.194125603719   -0.964858487674    0.976888708310
 C    0.256225603719   -3.992998487674    1.523608708310
 H   -0.153284396281   -3.968998487674    0.500858708310
 H   -0.345734396281   -3.343028487674    2.178848708310
 H    0.229555603719   -5.022418487674    1.904218708310
NA    0.048245603719   -0.053298487674    0.025638708310
 P   -1.848066534657    2.041576098180   -0.982081859800
 O   -3.496309757382    2.076052619010   -1.194404672175
 O   -1.640729403983    3.595581344316   -1.534158293661
 O   -1.175659723318    1.013591761712   -1.913922080246
 O   -1.470522233067    1.911353904967    0.507126731913
 C   -4.126866923059    0.847619254219   -0.805232497963
 H   -3.752142806312    0.007558004106   -1.412023049955
 H   -3.951339660798    0.640256965393    0.262630131674
 H   -5.203003151039    0.974664811849   -0.981609316209
 C   -0.265097867130    4.002796915607   -1.528329416179
 H    0.144415164441    3.978802531132   -0.505568843959
 H    0.336858844436    3.352832019870   -2.183564706826
 H   -0.238432804044    5.032215557853   -1.908935322475
