27

 P    1.868139188566   -2.063752749239    0.992749639105
 O    1.195729188566   -1.035762749239    1.924589639105
 O    1.490589188566   -1.933522749239   -0.496460360895
 O    3.516379188566   -2.098222749239    1.205069639105
 O    1.660799188566   -3.617752749239    1.544819639105
 C    4.146939188566   -0.869782749239    0.815899639105
 H    3.772209188566   -0.029722749239    1.422689639105
 H    3.971409188566   -0.662422749239   -0.251960360895
 H    5.223069188566   -0.996832749239    0.992269639105
 C    0.285169188566   -4.024972749239    1.538989639105
 H   -0.124340811434   -4.000972749239    0.516239639105
 H   -0.316790811434   -3.375002749239    2.194229639105
 H    0.258499188566   -5.054392749239    1.919599639105
NA    0.077189188566   -0.085272749239    0.041019639105
 P   -1.882333354422    2.079430989477   -1.000291614609
 O   -3.530576577147    2.113907510308   -1.212614426984
 O   -1.674996223748    3.633436235613   -1.552368048469
 O   -1.209926543083    1.051446653009   -1.932131835055
 O   -1.504789052832    1.949208796265    0.488916977104
 C   -4.161133742824    0.885474145516   -0.823442252772
 H   -3.786409626077    0.045412895403   -1.430232804764
 H   -3.985606480563    0.678111856690    0.244420376865
 H   -5.237269970804    1.012519703146   -0.999819071018
 C   -0.299364686895    4.040651806905   -1.546539170988
 H    0.110148344676    4.016657422429   -0.523778598768
 H    0.302592024671    3.390686911167   -2.201774461635
 H   -0.272699623809    5.070070449151   -1.927145077283
