27

 P    1.926026358261   -2.127701272368    1.023511500695
 O    1.253616358261   -1.099711272368    1.955351500695
 O    1.548476358261   -1.997471272368   -0.465698499305
 O    3.574266358261   -2.162171272368    1.235831500695
 O    1.718686358261   -3.681701272368    1.575581500695
 C    4.204826358261   -0.933731272368    0.846661500695
 H    3.830096358261   -0.093671272368    1.453451500695
 H    4.029296358261   -0.726371272368   -0.221198499305
 H    5.280956358261   -1.060781272368    1.023031500695
 C    0.343056358261   -4.088921272368    1.569751500695
 H   -0.066453641739   -4.064921272368    0.547001500695
 H   -0.258903641739   -3.438951272368    2.224991500695
 H    0.316386358261   -5.118341272368    1.950361500695
NA    0.135076358261   -0.149221272368    0.071781500695
 P   -1.950866993952    2.155140772071   -1.036711124226
 O   -3.599110216677    2.189617292902   -1.249033936602
 O   -1.743529863278    3.709146018207   -1.588787558087
 O   -1.278460182613    1.127156435603   -1.968551344672
 O   -1.573322692362    2.024918578859    0.452497467487
 C   -4.229667382354    0.961183928111   -0.859861762390
 H   -3.854943265607    0.121122677997   -1.466652314382
 H   -4.054140120093    0.753821639284    0.208000867248
 H   -5.305803610334    1.088229485741   -1.036238580636
 C   -0.367898326425    4.116361589499   -1.582958680605
 H    0.041614705146    4.092367205023   -0.560198108386
 H    0.234058385141    3.466396693762   -2.238193971253
 H   -0.341233263339    5.145780231745   -1.963564586901
