27

 P    1.954969943109   -2.159675533933    1.038892431490
 O    1.282559943109   -1.131685533933    1.970732431490
 O    1.577419943109   -2.029445533933   -0.450317568510
 O    3.603209943109   -2.194145533933    1.251212431490
 O    1.747629943109   -3.713675533933    1.590962431490
 C    4.233769943109   -0.965705533933    0.862042431490
 H    3.859039943109   -0.125645533933    1.468832431490
 H    4.058239943109   -0.758345533933   -0.205817568510
 H    5.309899943109   -1.092755533933    1.038412431490
 C    0.371999943109   -4.120895533933    1.585132431490
 H   -0.037510056891   -4.096895533933    0.562382431490
 H   -0.229960056891   -3.470925533933    2.240372431490
 H    0.345329943109   -5.150315533933    1.965742431490
NA    0.164019943109   -0.181195533933    0.087162431490
 P   -1.985133813717    2.192995663368   -1.054920879035
 O   -3.633377036442    2.227472184199   -1.267243691411
 O   -1.777796683043    3.747000909504   -1.606997312896
 O   -1.312727002378    1.165011326901   -1.986761099481
 O   -1.607589512127    2.062773470156    0.434287712678
 C   -4.263934202119    0.999038819408   -0.878071517199
 H   -3.889210085372    0.158977569294   -1.484862069190
 H   -4.088406939858    0.791676530582    0.189791112439
 H   -5.340070430099    1.126084377038   -1.054448335444
 C   -0.402165146190    4.154216480796   -1.601168435414
 H    0.007347885381    4.130222096320   -0.578407863195
 H    0.199791565376    3.504251585059   -2.256403726062
 H   -0.375500083104    5.183635123042   -1.981774341710
