27

 P    2.041800697652   -2.255598318627    1.085035223874
 O    1.369390697652   -1.227608318627    2.016875223874
 O    1.664250697652   -2.125368318627   -0.404174776126
 O    3.690040697652   -2.290068318627    1.297355223874
 O    1.834460697652   -3.809598318627    1.637105223874
 C    4.320600697652   -1.061628318627    0.908185223874
 H    3.945870697652   -0.221568318627    1.514975223874
 H    4.145070697652   -0.854268318627   -0.159674776126
 H    5.396730697652   -1.188678318627    1.084555223874
 C    0.458830697652   -4.216818318627    1.631275223874
 H    0.049320697652   -4.192818318627    0.608525223874
 H   -0.143129302348   -3.566848318627    2.286515223874
 H    0.432160697652   -5.246238318627    2.011885223874
NA    0.250850697652   -0.277118318627    0.133305223874
 P   -2.087934273012    2.306560337260   -1.109550143462
 O   -3.736177495736    2.341036858090   -1.321872955837
 O   -1.880597142338    3.860565583396   -1.661626577323
 O   -1.415527461672    1.278576000792   -2.041390363908
 O   -1.710389971422    2.176338144047    0.379658448251
 C   -4.366734661413    1.112603493299   -0.932700781625
 H   -3.992010544667    0.272542243186   -1.539491333617
 H   -4.191207399153    0.905241204473    0.135161848012
 H   -5.442870889394    1.239649050929   -1.109077599871
 C   -0.504965605485    4.267781154687   -1.655797699841
 H   -0.095452573914    4.243786770211   -0.633037127621
 H    0.096991106081    3.617816258950   -2.311032990488
 H   -0.478300542399    5.297199796933   -2.036403606137
