27

 P    2.099687867347   -2.319546841756    1.115797085464
 O    1.427277867347   -1.291556841756    2.047637085464
 O    1.722137867347   -2.189316841756   -0.373412914536
 O    3.747927867347   -2.354016841756    1.328117085464
 O    1.892347867347   -3.873546841756    1.667867085464
 C    4.378487867347   -1.125576841756    0.938947085464
 H    4.003757867347   -0.285516841756    1.545737085464
 H    4.202957867347   -0.918216841756   -0.128912914536
 H    5.454617867347   -1.252626841756    1.115317085464
 C    0.516717867347   -4.280766841756    1.662037085464
 H    0.107207867347   -4.256766841756    0.639287085464
 H   -0.085242132653   -3.630796841756    2.317277085464
 H    0.490047867347   -5.310186841756    2.042647085464
NA    0.308737867347   -0.341066841756    0.164067085464
 P   -2.156467912542    2.382270119854   -1.145969653080
 O   -3.804711135266    2.416746640685   -1.358292465455
 O   -1.949130781868    3.936275365990   -1.698046086940
 O   -1.484061101202    1.354285783386   -2.077809873526
 O   -1.778923610952    2.252047926642    0.343238938634
 C   -4.435268300943    1.188313275893   -0.969120291243
 H   -4.060544184196    0.348252025780   -1.575910843235
 H   -4.259741038683    0.980950987067    0.098742338394
 H   -5.511404528924    1.315358833524   -1.145497109489
 C   -0.573499245014    4.343490937282   -1.692217209459
 H   -0.163986213444    4.319496552806   -0.669456637239
 H    0.028457466552    3.693526041544   -2.347452500106
 H   -0.546834181928    5.372909579528   -2.072823115754
