27

 P    2.186518621889   -2.415469626450    1.161939877848
 O    1.514108621889   -1.387479626450    2.093779877848
 O    1.808968621889   -2.285239626450   -0.327270122152
 O    3.834758621889   -2.449939626450    1.374259877848
 O    1.979178621889   -3.969469626450    1.714009877848
 C    4.465318621889   -1.221499626450    0.985089877848
 H    4.090588621889   -0.381439626450    1.591879877848
 H    4.289788621889   -1.014139626450   -0.082770122152
 H    5.541448621889   -1.348549626450    1.161459877848
 C    0.603548621889   -4.376689626450    1.708179877848
 H    0.194038621889   -4.352689626450    0.685429877848
 H    0.001588621889   -3.726719626450    2.363419877848
 H    0.576878621889   -5.406109626450    2.088789877848
NA    0.395568621889   -0.436989626450    0.210209877848
 P   -2.259268371837    2.495834793745   -1.200598917506
 O   -3.907511594561    2.530311314576   -1.412921729882
 O   -2.051931241163    4.049840039882   -1.752675351367
 O   -1.586861560497    1.467850457278   -2.132439137952
 O   -1.881724070247    2.365612600533    0.288609674207
 C   -4.538068760238    1.301877949785   -1.023749555670
 H   -4.163344643491    0.461816699671   -1.630540107661
 H   -4.362541497978    1.094515660959    0.044113073968
 H   -5.614204988219    1.428923507415   -1.200126373915
 C   -0.676299704309    4.457055611173   -1.746846473885
 H   -0.266786672739    4.433061226697   -0.724085901665
 H   -0.074342992743    3.807090715436   -2.402081764533
 H   -0.649634641223    5.486474253419   -2.127452380181
