27

 P    2.215462206737   -2.447443888014    1.177320808643
 O    1.543052206737   -1.419453888014    2.109160808643
 O    1.837912206737   -2.317213888014   -0.311889191357
 O    3.863702206737   -2.481913888014    1.389640808643
 O    2.008122206737   -4.001443888014    1.729390808643
 C    4.494262206737   -1.253473888014    1.000470808643
 H    4.119532206737   -0.413413888014    1.607260808643
 H    4.318732206737   -1.046113888014   -0.067389191357
 H    5.570392206737   -1.380523888014    1.176840808643
 C    0.632492206737   -4.408663888014    1.723560808643
 H    0.222982206737   -4.384663888014    0.700810808643
 H    0.030532206737   -3.758693888014    2.378800808643
 H    0.605822206737   -5.438083888014    2.104170808643
NA    0.424512206737   -0.468963888014    0.225590808643
 P   -2.293535191602    2.533689685042   -1.218808672315
 O   -3.941778414326    2.568166205873   -1.431131484691
 O   -2.086198060928    4.087694931179   -1.770885106176
 O   -1.621128380262    1.505705348575   -2.150648892761
 O   -1.915990890012    2.403467491830    0.270399919398
 C   -4.572335580003    1.339732841082   -1.041959310478
 H   -4.197611463256    0.499671590969   -1.648749862470
 H   -4.396808317743    1.132370552256    0.025903319159
 H   -5.648471807984    1.466778398712   -1.218336128724
 C   -0.710566524074    4.494910502470   -1.765056228694
 H   -0.301053492503    4.470916117994   -0.742295656474
 H   -0.108609812508    3.844945606733   -2.420291519341
 H   -0.683901460988    5.524329144716   -2.145662134990
