27

 P    2.273349376432   -2.511392411144    1.208082670232
 O    1.600939376432   -1.483402411144    2.139922670232
 O    1.895799376432   -2.381162411144   -0.281127329768
 O    3.921589376432   -2.545862411144    1.420402670232
 O    2.066009376432   -4.065392411144    1.760152670232
 C    4.552149376432   -1.317422411144    1.031232670232
 H    4.177419376432   -0.477362411144    1.638022670232
 H    4.376619376432   -1.110062411144   -0.036627329768
 H    5.628279376432   -1.444472411144    1.207602670232
 C    0.690379376432   -4.472612411144    1.754322670232
 H    0.280869376432   -4.448612411144    0.731572670232
 H    0.088419376432   -3.822642411144    2.409562670232
 H    0.663709376432   -5.502032411144    2.134932670232
NA    0.482399376432   -0.532912411144    0.256352670232
 P   -2.362068831132    2.609399467637   -1.255228181933
 O   -4.010312053856    2.643875988467   -1.467550994308
 O   -2.154731700457    4.163404713773   -1.807304615793
 O   -1.689662019792    1.581415131169   -2.187068402379
 O   -1.984524529542    2.479177274424    0.233980409780
 C   -4.640869219533    1.415442623676   -1.078378820096
 H   -4.266145102786    0.575381373563   -1.685169372088
 H   -4.465341957273    1.208080334850   -0.010516190459
 H   -5.717005447514    1.542488181306   -1.254755638342
 C   -0.779100163604    4.570620285064   -1.801475738312
 H   -0.369587132033    4.546625900589   -0.778715166092
 H   -0.177143452038    3.920655389327   -2.456711028959
 H   -0.752435100518    5.600038927310   -2.182081644607
