27

 P    2.418067300670   -2.671263718967    1.284987324207
 O    1.745657300670   -1.643273718967    2.216827324207
 O    2.040517300670   -2.541033718967   -0.204222675793
 O    4.066307300670   -2.705733718967    1.497307324207
 O    2.210727300670   -4.225263718967    1.837057324207
 C    4.696867300670   -1.477293718967    1.108137324207
 H    4.322137300670   -0.637233718967    1.714927324207
 H    4.521337300670   -1.269933718967    0.040277324207
 H    5.772997300670   -1.604343718967    1.284507324207
 C    0.835097300670   -4.632483718967    1.831227324207
 H    0.425587300670   -4.608483718967    0.808477324207
 H    0.233137300670   -3.982513718967    2.486467324207
 H    0.808427300670   -5.661903718967    2.211837324207
NA    0.627117300670   -0.692783718967    0.333257324207
 P   -2.533402929957    2.798673924122   -1.346276955977
 O   -4.181646152681    2.833150444953   -1.558599768353
 O   -2.326065799282    4.352679170259   -1.898353389838
 O   -1.860996118617    1.770689587655   -2.278117176423
 O   -2.155858628367    2.668451730910    0.142931635736
 C   -4.812203318358    1.604717080162   -1.169427594140
 H   -4.437479201611    0.764655830049   -1.776218146132
 H   -4.636676056098    1.397354791336   -0.101564964503
 H   -5.888339546339    1.731762637792   -1.345804412386
 C   -0.950434262429    4.759894741550   -1.892524512356
 H   -0.540921230858    4.735900357074   -0.869763940136
 H   -0.348477550863    4.109929845813   -2.547759803003
 H   -0.923769199343    5.789313383796   -2.273130418652
