27

 P    2.447010885518   -2.703237980532    1.300368255001
 O    1.774600885518   -1.675247980532    2.232208255001
 O    2.069460885518   -2.573007980532   -0.188841744999
 O    4.095250885518   -2.737707980532    1.512688255001
 O    2.239670885518   -4.257237980532    1.852438255001
 C    4.725810885518   -1.509267980532    1.123518255001
 H    4.351080885518   -0.669207980532    1.730308255001
 H    4.550280885518   -1.301907980532    0.055658255001
 H    5.801940885518   -1.636317980532    1.299888255001
 C    0.864040885518   -4.664457980532    1.846608255001
 H    0.454530885518   -4.640457980532    0.823858255001
 H    0.262080885518   -4.014487980532    2.501848255001
 H    0.837370885518   -5.693877980532    2.227218255001
NA    0.656060885518   -0.724757980532    0.348638255001
 P   -2.567669749722    2.836528815419   -1.364486710786
 O   -4.215912972446    2.871005336250   -1.576809523161
 O   -2.360332619047    4.390534061556   -1.916563144647
 O   -1.895262938382    1.808544478952   -2.296326931232
 O   -2.190125448132    2.706306622207    0.124721880927
 C   -4.846470138123    1.642571971459   -1.187637348949
 H   -4.471746021376    0.802510721346   -1.794427900941
 H   -4.670942875863    1.435209682633   -0.119774719312
 H   -5.922606366103    1.769617529089   -1.364014167195
 C   -0.984701082194    4.797749632847   -1.910734267165
 H   -0.575188050623    4.773755248371   -0.887973694945
 H   -0.382744370628    4.147784737110   -2.565969557812
 H   -0.958036019108    5.827168275093   -2.291340173461
