27

 P    2.533841640060   -2.799160765226    1.346511047386
 O    1.861431640060   -1.771170765226    2.278351047386
 O    2.156291640060   -2.668930765226   -0.142698952614
 O    4.182081640060   -2.833630765226    1.558831047386
 O    2.326501640060   -4.353160765226    1.898581047386
 C    4.812641640060   -1.605190765226    1.169661047386
 H    4.437911640060   -0.765130765226    1.776451047386
 H    4.637111640060   -1.397830765226    0.101801047386
 H    5.888771640060   -1.732240765226    1.346031047386
 C    0.950871640060   -4.760380765226    1.892751047386
 H    0.541361640060   -4.736380765226    0.870001047386
 H    0.348911640060   -4.110410765226    2.547991047386
 H    0.924201640060   -5.789800765226    2.273361047386
NA    0.742891640060   -0.820680765226    0.394781047386
 P   -2.670470209017    2.950093489311   -1.419115975212
 O   -4.318713431741    2.984570010142   -1.631438787588
 O   -2.463133078342    4.504098735447   -1.971192409073
 O   -1.998063397677    1.922109152843   -2.350956195658
 O   -2.292925907427    2.819871296099    0.070092616501
 C   -4.949270597418    1.756136645350   -1.242266613376
 H   -4.574546480671    0.916075395237   -1.849057165368
 H   -4.773743335158    1.548774356524   -0.174403983738
 H   -6.025406825398    1.883182202981   -1.418643431621
 C   -1.087501541489    4.911314306739   -1.965363531591
 H   -0.677988509918    4.887319922263   -0.942602959372
 H   -0.485544829923    4.261349411001   -2.620598822239
 H   -1.060836478403    5.940732948985   -2.345969437887
