27

 P    2.591728809755   -2.863109288355    1.377272908975
 O    1.919318809755   -1.835119288355    2.309112908975
 O    2.214178809755   -2.732879288355   -0.111937091025
 O    4.239968809755   -2.897579288355    1.589592908975
 O    2.384388809755   -4.417109288355    1.929342908975
 C    4.870528809755   -1.669139288355    1.200422908975
 H    4.495798809755   -0.829079288355    1.807212908975
 H    4.694998809755   -1.461779288355    0.132562908975
 H    5.946658809755   -1.796189288355    1.376792908975
 C    1.008758809755   -4.824329288355    1.923512908975
 H    0.599248809755   -4.800329288355    0.900762908975
 H    0.406798809755   -4.174359288355    2.578752908975
 H    0.982088809755   -5.853749288355    2.304122908975
NA    0.800778809755   -0.884629288355    0.425542908975
 P   -2.739003848547    3.025803271905   -1.455535484830
 O   -4.387247071271    3.060279792736   -1.667858297206
 O   -2.531666717872    4.579808518041   -2.007611918691
 O   -2.066597037207    1.997818935437   -2.387375705276
 O   -2.361459546957    2.895581078693    0.033673106883
 C   -5.017804236948    1.831846427945   -1.278686122994
 H   -4.643080120201    0.991785177831   -1.885476674985
 H   -4.842276974688    1.624484139118   -0.210823493356
 H   -6.093940464928    1.958891985575   -1.455062941239
 C   -1.156035181019    4.987024089333   -2.001783041209
 H   -0.746522149448    4.963029704857   -0.979022468989
 H   -0.554078469453    4.337059193596   -2.657018331857
 H   -1.129370117933    6.016442731579   -2.382388947505
