27

 P    2.707503149146   -2.991006334614    1.438796632155
 O    2.035093149146   -1.963016334614    2.370636632155
 O    2.329953149146   -2.860776334614   -0.050413367845
 O    4.355743149146   -3.025476334614    1.651116632155
 O    2.500163149146   -4.545006334614    1.990866632155
 C    4.986303149146   -1.797036334614    1.261946632155
 H    4.611573149146   -0.956976334614    1.868736632155
 H    4.810773149146   -1.589676334614    0.194086632155
 H    6.062433149146   -1.924086334614    1.438316632155
 C    1.124533149146   -4.952226334614    1.985036632155
 H    0.715023149146   -4.928226334614    0.962286632155
 H    0.522573149146   -4.302256334614    2.640276632155
 H    1.097863149146   -5.981646334614    2.365646632155
NA    0.916553149146   -1.012526334614    0.487066632155
 P   -2.876071127607    3.177222837094   -1.528374504065
 O   -4.524314350331    3.211699357924   -1.740697316441
 O   -2.668733996932    4.731228083230   -2.080450937926
 O   -2.203664316267    2.149238500626   -2.460214724512
 O   -2.498526826017    3.047000643881   -0.039165912352
 C   -5.154871516008    1.983265993133   -1.351525142229
 H   -4.780147399261    1.143204743020   -1.958315694221
 H   -4.979344253747    1.775903704307   -0.283662512592
 H   -6.231007743988    2.110311550763   -1.527901960475
 C   -1.293102460079    5.138443654521   -2.074622060445
 H   -0.883589428508    5.114449270046   -1.051861488225
 H   -0.691145748513    4.488478758784   -2.729857351092
 H   -1.266437396993    6.167862296767   -2.455227966740
