27

 P    2.736446733993   -3.022980596178    1.454177562950
 O    2.064036733993   -1.994990596178    2.386017562950
 O    2.358896733993   -2.892750596178   -0.035032437050
 O    4.384686733993   -3.057450596178    1.666497562950
 O    2.529106733993   -4.576980596178    2.006247562950
 C    5.015246733993   -1.829010596178    1.277327562950
 H    4.640516733993   -0.988950596178    1.884117562950
 H    4.839716733993   -1.621650596178    0.209467562950
 H    6.091376733993   -1.956060596178    1.453697562950
 C    1.153476733993   -4.984200596178    2.000417562950
 H    0.743966733993   -4.960200596178    0.977667562950
 H    0.551516733993   -4.334230596178    2.655657562950
 H    1.126806733993   -6.013620596178    2.381027562950
NA    0.945496733993   -1.044500596178    0.502447562950
 P   -2.910337947372    3.215077728391   -1.546584258874
 O   -4.558581170096    3.249554249222   -1.758907071250
 O   -2.703000816697    4.769082974527   -2.098660692735
 O   -2.237931136032    2.187093391923   -2.478424479320
 O   -2.532793645782    3.084855535179   -0.057375667161
 C   -5.189138335773    2.021120884430   -1.369734897038
 H   -4.814414219026    1.181059634317   -1.976525449029
 H   -5.013611073512    1.813758595604   -0.301872267400
 H   -6.265274563753    2.148166442061   -1.546111715283
 C   -1.327369279844    5.176298545819   -2.092831815253
 H   -0.917856248273    5.152304161343   -1.070071243034
 H   -0.725412568278    4.526333650081   -2.748067105901
 H   -1.300704216758    6.205717188065   -2.473437721549
