27

 P    2.794333903688   -3.086929119308    1.484939424539
 O    2.121923903688   -2.058939119308    2.416779424539
 O    2.416783903688   -2.956699119308   -0.004270575461
 O    4.442573903688   -3.121399119308    1.697259424539
 O    2.586993903688   -4.640929119308    2.037009424539
 C    5.073133903688   -1.892959119308    1.308089424539
 H    4.698403903688   -1.052899119308    1.914879424539
 H    4.897603903688   -1.685599119308    0.240229424539
 H    6.149263903688   -2.020009119308    1.484459424539
 C    1.211363903688   -5.048149119308    2.031179424539
 H    0.801853903688   -5.024149119308    1.008429424539
 H    0.609403903688   -4.398179119308    2.686419424539
 H    1.184693903688   -6.077569119308    2.411789424539
NA    1.003383903688   -1.108449119308    0.533209424539
 P   -2.978871586902    3.290787510985   -1.583003768492
 O   -4.627114809626    3.325264031816   -1.795326580868
 O   -2.771534456227    4.844792757121   -2.135080202353
 O   -2.306464775562    2.262803174517   -2.514843988938
 O   -2.601327285311    3.160565317773   -0.093795176779
 C   -5.257671975303    2.096830667025   -1.406154406655
 H   -4.882947858556    1.256769416911   -2.012944958647
 H   -5.082144713042    1.889468378198   -0.338291777018
 H   -6.333808203283    2.223876224655   -1.582531224901
 C   -1.395902919374    5.252008328413   -2.129251324871
 H   -0.986389887803    5.228013943937   -1.106490752651
 H   -0.793946207808    4.602043432676   -2.784486615519
 H   -1.369237856288    6.281426970659   -2.509857231167
