27

 P    2.823277488536   -3.118903380872    1.500320355334
 O    2.150867488536   -2.090913380872    2.432160355334
 O    2.445727488536   -2.988673380872    0.011110355334
 O    4.471517488536   -3.153373380872    1.712640355334
 O    2.615937488536   -4.672903380872    2.052390355334
 C    5.102077488536   -1.924933380872    1.323470355334
 H    4.727347488536   -1.084873380872    1.930260355334
 H    4.926547488536   -1.717573380872    0.255610355334
 H    6.178207488536   -2.051983380872    1.499840355334
 C    1.240307488536   -5.080123380872    2.046560355334
 H    0.830797488536   -5.056123380872    1.023810355334
 H    0.638347488536   -4.430153380872    2.701800355334
 H    1.213637488536   -6.109543380872    2.427170355334
NA    1.032327488536   -1.140423380872    0.548590355334
 P   -3.013138406667    3.328642402282   -1.601213523301
 O   -4.661381629391    3.363118923113   -1.813536335677
 O   -2.805801275992    4.882647648418   -2.153289957162
 O   -2.340731595327    2.300658065815   -2.533053743747
 O   -2.635594105076    3.198420209070   -0.112004931588
 C   -5.291938795068    2.134685558322   -1.424364161464
 H   -4.917214678321    1.294624308208   -2.031154713456
 H   -5.116411532807    1.927323269496   -0.356501531827
 H   -6.368075023048    2.261731115952   -1.600740979710
 C   -1.430169739139    5.289863219710   -2.147461079680
 H   -1.020656707568    5.265868835234   -1.124700507460
 H   -0.828213027573    4.639898323973   -2.802696370327
 H   -1.403504676053    6.319281861956   -2.528066985976
