27

 P    2.852221073384   -3.150877642437    1.515701286129
 O    2.179811073384   -2.122887642437    2.447541286129
 O    2.474671073384   -3.020647642437    0.026491286129
 O    4.500461073384   -3.185347642437    1.728021286129
 O    2.644881073384   -4.704877642437    2.067771286129
 C    5.131021073384   -1.956907642437    1.338851286129
 H    4.756291073384   -1.116847642437    1.945641286129
 H    4.955491073384   -1.749547642437    0.270991286129
 H    6.207151073384   -2.083957642437    1.515221286129
 C    1.269251073384   -5.112097642437    2.061941286129
 H    0.859741073384   -5.088097642437    1.039191286129
 H    0.667291073384   -4.462127642437    2.717181286129
 H    1.242581073384   -6.141517642437    2.442551286129
NA    1.061271073384   -1.172397642437    0.563971286129
 P   -3.047405226431    3.366497293579   -1.619423278110
 O   -4.695648449156    3.400973814410   -1.831746090485
 O   -2.840068095757    4.920502539716   -2.171499711970
 O   -2.374998415092    2.338512957112   -2.551263498556
 O   -2.669860924841    3.236275100367   -0.130214686397
 C   -5.326205614833    2.172540449619   -1.442573916273
 H   -4.951481498086    1.332479199506   -2.049364468265
 H   -5.150678352572    1.965178160793   -0.374711286636
 H   -6.402341842813    2.299586007249   -1.618950734519
 C   -1.464436558904    5.327718111007   -2.165670834489
 H   -1.054923527333    5.303723726531   -1.142910262269
 H   -0.862479847338    4.677753215270   -2.820906125136
 H   -1.437771495818    6.357136753253   -2.546276740784
