27

 P    2.910108243079   -3.214826165566    1.546463147718
 O    2.237698243079   -2.186836165566    2.478303147718
 O    2.532558243079   -3.084596165566    0.057253147718
 O    4.558348243079   -3.249296165566    1.758783147718
 O    2.702768243079   -4.768826165566    2.098533147718
 C    5.188908243079   -2.020856165566    1.369613147718
 H    4.814178243079   -1.180796165566    1.976403147718
 H    5.013378243079   -1.813496165566    0.301753147718
 H    6.265038243079   -2.147906165566    1.545983147718
 C    1.327138243079   -5.176046165566    2.092703147718
 H    0.917628243079   -5.152046165566    1.069953147718
 H    0.725178243079   -4.526076165566    2.747943147718
 H    1.300468243079   -6.205466165566    2.473313147718
NA    1.119158243079   -1.236346165566    0.594733147718
 P   -3.115938865961    3.442207076174   -1.655842787727
 O   -4.764182088686    3.476683597004   -1.868165600103
 O   -2.908601735287    4.996212322310   -2.207919221588
 O   -2.443532054622    2.414222739706   -2.587683008173
 O   -2.738394564371    3.311984882961   -0.166634196014
 C   -5.394739254363    2.248250232213   -1.478993425891
 H   -5.020015137616    1.408188982100   -2.085783977883
 H   -5.219211992102    2.040887943387   -0.411130796253
 H   -6.470875482343    2.375295789843   -1.655370244137
 C   -1.532970198434    5.403427893601   -2.202090344106
 H   -1.123457166863    5.379433509125   -1.179329771887
 H   -0.931013486868    4.753462997864   -2.857325634754
 H   -1.506305135348    6.432846535847   -2.582696250402
