27

 P    3.025882582469   -3.342723211825    1.607986870898
 O    2.353472582469   -2.314733211825    2.539826870898
 O    2.648332582469   -3.212493211825    0.118776870898
 O    4.674122582469   -3.377193211825    1.820306870898
 O    2.818542582469   -4.896723211825    2.160056870898
 C    5.304682582469   -2.148753211825    1.431136870898
 H    4.929952582469   -1.308693211825    2.037926870898
 H    5.129152582469   -1.941393211825    0.363276870898
 H    6.380812582469   -2.275803211825    1.607506870898
 C    1.442912582469   -5.303943211825    2.154226870898
 H    1.033402582469   -5.279943211825    1.131476870898
 H    0.840952582469   -4.653973211825    2.809466870898
 H    1.416242582469   -6.333363211825    2.534836870898
NA    1.234932582469   -1.364243211825    0.656256870898
 P   -3.253006145021    3.593626641362   -1.728681806963
 O   -4.901249367746    3.628103162193   -1.941004619338
 O   -3.045669014347    5.147631887498   -2.280758240824
 O   -2.580599333681    2.565642304894   -2.660522027409
 O   -2.875461843431    3.463404448150   -0.239473215250
 C   -5.531806533423    2.399669797402   -1.551832445126
 H   -5.157082416676    1.559608547288   -2.158622997118
 H   -5.356279271162    2.192307508575   -0.483969815489
 H   -6.607942761403    2.526715355032   -1.728209263372
 C   -1.670037477494    5.554847458790   -2.274929363342
 H   -1.260524445923    5.530853074314   -1.252168791122
 H   -1.068080765928    4.904882563053   -2.930164653989
 H   -1.643372414408    6.584266101036   -2.655535269638
