27

 P    3.054826167316   -3.374697473389    1.623367801693
 O    2.382416167316   -2.346707473389    2.555207801693
 O    2.677276167316   -3.244467473389    0.134157801693
 O    4.703066167316   -3.409167473389    1.835687801693
 O    2.847486167316   -4.928697473389    2.175437801693
 C    5.333626167316   -2.180727473389    1.446517801693
 H    4.958896167316   -1.340667473389    2.053307801693
 H    5.158096167316   -1.973367473389    0.378657801693
 H    6.409756167316   -2.307777473389    1.622887801693
 C    1.471856167316   -5.335917473389    2.169607801693
 H    1.062346167316   -5.311917473389    1.146857801693
 H    0.869896167316   -4.685947473389    2.824847801693
 H    1.445186167316   -6.365337473389    2.550217801693
NA    1.263876167316   -1.396217473389    0.671637801693
 P   -3.287272964786    3.631481532659   -1.746891561772
 O   -4.935516187510    3.665958053490   -1.959214374147
 O   -3.079935834112    5.185486778796   -2.298967995632
 O   -2.614866153446    2.603497196192   -2.678731782218
 O   -2.909728663196    3.501259339447   -0.257682970059
 C   -5.566073353187    2.437524688699   -1.570042199935
 H   -5.191349236441    1.597463438585   -2.176832751927
 H   -5.390546090927    2.230162399873   -0.502179570298
 H   -6.642209581168    2.564570246329   -1.746419018181
 C   -1.704304297259    5.592702350087   -2.293139118151
 H   -1.294791265688    5.568707965611   -1.270378545931
 H   -1.102347585693    4.942737454350   -2.948374408798
 H   -1.677639234173    6.622120992333   -2.673745024446
