27

 P    3.083769752164   -3.406671734954    1.638748732487
 O    2.411359752164   -2.378681734954    2.570588732487
 O    2.706219752164   -3.276441734954    0.149538732487
 O    4.732009752164   -3.441141734954    1.851068732487
 O    2.876429752164   -4.960671734954    2.190818732487
 C    5.362569752164   -2.212701734954    1.461898732487
 H    4.987839752164   -1.372641734954    2.068688732487
 H    5.187039752164   -2.005341734954    0.394038732487
 H    6.438699752164   -2.339751734954    1.638268732487
 C    1.500799752164   -5.367891734954    2.184988732487
 H    1.091289752164   -5.343891734954    1.162238732487
 H    0.898839752164   -4.717921734954    2.840228732487
 H    1.474129752164   -6.397311734954    2.565598732487
NA    1.292819752164   -1.428191734954    0.687018732487
 P   -3.321539784551    3.669336423956   -1.765101316581
 O   -4.969783007275    3.703812944787   -1.977424128956
 O   -3.114202653877    5.223341670093   -2.317177750441
 O   -2.649132973211    2.641352087489   -2.696941537027
 O   -2.943995482961    3.539114230744   -0.275892724868
 C   -5.600340172952    2.475379579996   -1.588251954744
 H   -5.225616056205    1.635318329883   -2.195042506736
 H   -5.424812910692    2.268017291170   -0.520389325107
 H   -6.676476400933    2.602425137626   -1.764628772990
 C   -1.738571117024    5.630557241384   -2.311348872960
 H   -1.329058085453    5.606562856908   -1.288588300740
 H   -1.136614405457    4.980592345647   -2.966584163607
 H   -1.711906053938    6.659975883630   -2.691954779255
