27

 P    3.112713337012   -3.438645996519    1.654129663282
 O    2.440303337012   -2.410655996519    2.585969663282
 O    2.735163337012   -3.308415996519    0.164919663282
 O    4.760953337012   -3.473115996519    1.866449663282
 O    2.905373337012   -4.992645996519    2.206199663282
 C    5.391513337012   -2.244675996519    1.477279663282
 H    5.016783337012   -1.404615996519    2.084069663282
 H    5.215983337012   -2.037315996519    0.409419663282
 H    6.467643337012   -2.371725996519    1.653649663282
 C    1.529743337012   -5.399865996519    2.200369663282
 H    1.120233337012   -5.375865996519    1.177619663282
 H    0.927783337012   -4.749895996519    2.855609663282
 H    1.503073337012   -6.429285996519    2.580979663282
NA    1.321763337012   -1.460165996519    0.702399663282
 P   -3.355806604316    3.707191315253   -1.783311071389
 O   -5.004049827040    3.741667836084   -1.995633883765
 O   -3.148469473642    5.261196561390   -2.335387505250
 O   -2.683399792976    2.679206978786   -2.715151291835
 O   -2.978262302726    3.576969122041   -0.294102479676
 C   -5.634606992717    2.513234471293   -1.606461709553
 H   -5.259882875970    1.673173221180   -2.213252261545
 H   -5.459079730457    2.305872182467   -0.538599079915
 H   -6.710743220698    2.640280028923   -1.782838527799
 C   -1.772837936789    5.668412132681   -2.329558627768
 H   -1.363324905218    5.644417748205   -1.306798055549
 H   -1.170881225222    5.018447236944   -2.984793918416
 H   -1.746172873702    6.697830774927   -2.710164534064
