27

 P    3.228487676402   -3.566543042777    1.715653386461
 O    2.556077676402   -2.538553042777    2.647493386461
 O    2.850937676402   -3.436313042777    0.226443386461
 O    4.876727676402   -3.601013042777    1.927973386461
 O    3.021147676402   -5.120543042777    2.267723386461
 C    5.507287676402   -2.372573042777    1.538803386461
 H    5.132557676402   -1.532513042777    2.145593386461
 H    5.331757676402   -2.165213042777    0.470943386461
 H    6.583417676402   -2.499623042777    1.715173386461
 C    1.645517676402   -5.527763042777    2.261893386461
 H    1.236007676402   -5.503763042777    1.239143386461
 H    1.043557676402   -4.877793042777    2.917133386461
 H    1.618847676402   -6.557183042777    2.642503386461
NA    1.437537676402   -1.588063042777    0.763923386461
 P   -3.492873883376    3.858610880442   -1.856150090625
 O   -5.141117106100    3.893087401273   -2.068472903000
 O   -3.285536752702    5.412616126578   -2.408226524486
 O   -2.820467072036    2.830626543974   -2.787990311071
 O   -3.115329581786    3.728388687230   -0.366941498912
 C   -5.771674271777    2.664654036482   -1.679300728788
 H   -5.396950155030    1.824592786368   -2.286091280780
 H   -5.596147009517    2.457291747655   -0.611438099151
 H   -6.847810499758    2.791699594112   -1.855677547034
 C   -1.909905215848    5.819831697870   -2.402397647004
 H   -1.500392184277    5.795837313394   -1.379637074784
 H   -1.307948504282    5.169866802133   -3.057632937651
 H   -1.883240152762    6.849250340116   -2.783003553300
