27

 P    3.344262015792   -3.694440089036    1.777177109641
 O    2.671852015792   -2.666450089036    2.709017109641
 O    2.966712015792   -3.564210089036    0.287967109641
 O    4.992502015792   -3.728910089036    1.989497109641
 O    3.136922015792   -5.248440089036    2.329247109641
 C    5.623062015792   -2.500470089036    1.600327109641
 H    5.248332015792   -1.660410089036    2.207117109641
 H    5.447532015792   -2.293110089036    0.532467109641
 H    6.699192015792   -2.627520089036    1.776697109641
 C    1.761292015792   -5.655660089036    2.323417109641
 H    1.351782015792   -5.631660089036    1.300667109641
 H    1.159332015792   -5.005690089036    2.978657109641
 H    1.734622015792   -6.685080089036    2.704027109641
NA    1.553312015792   -1.715960089036    0.825447109641
 P   -3.629941162436    4.010030445631   -1.928989109860
 O   -5.278184385160    4.044506966461   -2.141311922236
 O   -3.422604031761    5.564035691767   -2.481065543721
 O   -2.957534351096    2.982046109163   -2.860829330306
 O   -3.252396860846    3.879808252418   -0.439780518147
 C   -5.908741550837    2.816073601670   -1.752139748024
 H   -5.534017434090    1.976012351557   -2.358930300015
 H   -5.733214288577    2.608711312844   -0.684277118386
 H   -6.984877778818    2.943119159300   -1.928516566269
 C   -2.046972494908    5.971251263058   -2.475236666239
 H   -1.637459463337    5.947256878582   -1.452476094020
 H   -1.445015783342    5.321286367321   -3.130471956887
 H   -2.020307431822    7.000669905304   -2.855842572535
