27

 P    3.460036355182   -3.822337135295    1.838700832820
 O    2.787626355182   -2.794347135295    2.770540832820
 O    3.082486355182   -3.692107135295    0.349490832820
 O    5.108276355182   -3.856807135295    2.051020832820
 O    3.252696355182   -5.376337135295    2.390770832820
 C    5.738836355182   -2.628367135295    1.661850832820
 H    5.364106355182   -1.788307135295    2.268640832820
 H    5.563306355182   -2.421007135295    0.593990832820
 H    6.814966355182   -2.755417135295    1.838220832820
 C    1.877066355182   -5.783557135295    2.384940832820
 H    1.467556355182   -5.759557135295    1.362190832820
 H    1.275106355182   -5.133587135295    3.040180832820
 H    1.850396355182   -6.812977135295    2.765550832820
NA    1.669086355182   -1.843857135295    0.886970832820
 P   -3.767008441496    4.161450010819   -2.001828129096
 O   -5.415251664220    4.195926531650   -2.214150941471
 O   -3.559671310821    5.715455256955   -2.553904562956
 O   -3.094601630156    3.133465674351   -2.933668349542
 O   -3.389464139906    4.031227817607   -0.512619537383
 C   -6.045808829897    2.967493166859   -1.824978767259
 H   -5.671084713150    2.127431916745   -2.431769319251
 H   -5.870281567637    2.760130878032   -0.757116137622
 H   -7.121945057878    3.094538724489   -2.001355585505
 C   -2.184039773968    6.122670828247   -2.548075685475
 H   -1.774526742397    6.098676443771   -1.525315113255
 H   -1.582083062402    5.472705932510   -3.203310976122
 H   -2.157374710882    7.152089470493   -2.928681591770
