27

 P    3.778415788506   -4.174054012506    2.007891071563
 O    3.106005788506   -3.146064012506    2.939731071563
 O    3.400865788506   -4.043824012506    0.518681071563
 O    5.426655788506   -4.208524012506    2.220211071563
 O    3.571075788506   -5.728054012506    2.559961071563
 C    6.057215788506   -2.980084012506    1.831041071563
 H    5.682485788506   -2.140024012506    2.437831071563
 H    5.881685788506   -2.772724012506    0.763181071563
 H    7.133345788506   -3.107134012506    2.007411071563
 C    2.195445788506   -6.135274012506    2.554131071563
 H    1.785935788506   -6.111274012506    1.531381071563
 H    1.593485788506   -5.485304012506    3.209371071563
 H    2.168775788506   -7.164694012506    2.934741071563
NA    1.987465788506   -2.195574012506    1.056161071563
 P   -4.143943458911    4.577853815088   -2.202135431993
 O   -5.792186681635    4.612330335918   -2.414458244369
 O   -3.936606328236    6.131859061224   -2.754211865854
 O   -3.471536647571    3.549869478620   -3.133975652439
 O   -3.766399157321    4.447631621875   -0.712926840280
 C   -6.422743847312    3.383896971127   -2.025286070157
 H   -6.048019730565    2.543835721014   -2.632076622148
 H   -6.247216585051    3.176534682301   -0.957423440519
 H   -7.498880075292    3.510942528757   -2.201662888402
 C   -2.560974791383    6.539074632515   -2.748382988372
 H   -2.151461759812    6.515080248039   -1.725622416152
 H   -1.959018079817    5.889109736778   -3.403618279020
 H   -2.534309728297    7.568493274761   -3.128988894668
