27

 P    3.807359373353   -4.206028274070    2.023272002358
 O    3.134949373353   -3.178038274070    2.955112002358
 O    3.429809373353   -4.075798274070    0.534062002358
 O    5.455599373353   -4.240498274070    2.235592002358
 O    3.600019373353   -5.760028274070    2.575342002358
 C    6.086159373353   -3.012058274070    1.846422002358
 H    5.711429373353   -2.171998274070    2.453212002358
 H    5.910629373353   -2.804698274070    0.778562002358
 H    7.162289373353   -3.139108274070    2.022792002358
 C    2.224389373353   -6.167248274070    2.569512002358
 H    1.814879373353   -6.143248274070    1.546762002358
 H    1.622429373353   -5.517278274070    3.224752002358
 H    2.197719373353   -7.196668274070    2.950122002358
NA    2.016409373353   -2.227548274070    1.071542002358
 P   -4.178210278676    4.615708706385   -2.220345186802
 O   -5.826453501400    4.650185227215   -2.432667999178
 O   -3.970873148001    6.169713952521   -2.772421620663
 O   -3.505803467336    3.587724369917   -3.152185407248
 O   -3.800665977085    4.485486513173   -0.731136595089
 C   -6.457010667077    3.421751862424   -2.043495824965
 H   -6.082286550330    2.581690612311   -2.650286376957
 H   -6.281483404816    3.214389573598   -0.975633195328
 H   -7.533146895057    3.548797420054   -2.219872643211
 C   -2.595241611148    6.576929523813   -2.766592743181
 H   -2.185728579577    6.552935139337   -1.743832170961
 H   -1.993284899582    5.926964628075   -3.421828033828
 H   -2.568576548062    7.606348166058   -3.147198649477
