27

 P    3.836302958201   -4.238002535635    2.038652933153
 O    3.163892958201   -3.210012535635    2.970492933153
 O    3.458752958201   -4.107772535635    0.549442933153
 O    5.484542958201   -4.272472535635    2.250972933153
 O    3.628962958201   -5.792002535635    2.590722933153
 C    6.115102958201   -3.044032535635    1.861802933153
 H    5.740372958201   -2.203972535635    2.468592933153
 H    5.939572958201   -2.836672535635    0.793942933153
 H    7.191232958201   -3.171082535635    2.038172933153
 C    2.253332958201   -6.199222535635    2.584892933153
 H    1.843822958201   -6.175222535635    1.562142933153
 H    1.651372958201   -5.549252535635    3.240132933153
 H    2.226662958201   -7.228642535635    2.965502933153
NA    2.045352958201   -2.259522535635    1.086922933153
 P   -4.212477098441    4.653563597682   -2.238554941611
 O   -5.860720321165    4.688040118513   -2.450877753986
 O   -4.005139967766    6.207568843818   -2.790631375472
 O   -3.540070287101    3.625579261214   -3.170395162057
 O   -3.834932796850    4.523341404470   -0.749346349898
 C   -6.491277486842    3.459606753721   -2.061705579774
 H   -6.116553370095    2.619545503608   -2.668496131766
 H   -6.315750224581    3.252244464895   -0.993842950137
 H   -7.567413714822    3.586652311352   -2.238082398020
 C   -2.629508430913    6.614784415110   -2.784802497990
 H   -2.219995399342    6.590790030634   -1.762041925770
 H   -2.027551719347    5.964819519372   -3.440037788637
 H   -2.602843367827    7.644203057356   -3.165408404286
