14

 N    1.107007680255    1.073991118148   -0.002257179897
 C    0.021560737352    1.896750087976    0.000884691324
 H    0.213081577234    2.971807060475   -0.001619907218
 C    1.025143959573   -0.345279343578   -0.001239511013
 O    2.068887206891   -0.998521233639   -0.003720352325
 N   -0.248694129108   -0.887418975171    0.009373723117
 C   -1.306380241921   -0.086066944296    0.006880678289
 N   -2.538373358377   -0.689865973376   -0.038525144920
 H   -2.547307826698   -1.689559859887    0.131045463645
 H   -3.356951102580   -0.163437653976    0.236374979877
 C   -1.237798243487    1.355309894899    0.003397244623
 H   -2.126321959172    1.986627486143   -0.006084709404
 H    2.050947803182    1.448639330590   -0.005563076125
LI    2.026180307702   -2.197740352629    0.003324178190
