14

 N    1.107642174614    1.091807859265   -0.002361840150
 C    0.022195231711    1.914566829093    0.000780031071
 H    0.213716071593    2.989623801592   -0.001724567471
 C    1.025778453932   -0.327462602461   -0.001344171266
 O    2.069521701250   -0.980704492522   -0.003825012578
 N   -0.248059634749   -0.869602234054    0.009269062864
 C   -1.305745747562   -0.068250203179    0.006776018036
 N   -2.537738864018   -0.672049232259   -0.038629805173
 H   -2.546673332339   -1.671743118770    0.130940803392
 H   -3.356316608221   -0.145620912859    0.236270319624
 C   -1.237163749128    1.373126636016    0.003292584370
 H   -2.125687464813    2.004444227260   -0.006189369657
 H    2.051582297541    1.466456071707   -0.005667736378
LI    2.016138077264   -2.479728391260    0.004980650565
