14

 N    1.108065170854    1.103685686676   -0.002431613652
 C    0.022618227951    1.926444656504    0.000710257569
 H    0.214139067833    3.001501629003   -0.001794340973
 C    1.026201450172   -0.315584775050   -0.001413944768
 O    2.069944697490   -0.968826665111   -0.003894786080
 N   -0.247636638509   -0.857724406643    0.009199289362
 C   -1.305322751322   -0.056372375768    0.006706244534
 N   -2.537315867778   -0.660171404848   -0.038699578675
 H   -2.546250336099   -1.659865291359    0.130871029890
 H   -3.355893611981   -0.133743085448    0.236200546122
 C   -1.236740752888    1.385004463427    0.003222810868
 H   -2.125264468573    2.016322054671   -0.006259143159
 H    2.052005293781    1.478333899118   -0.005737509880
LI    2.009443256972   -2.667720417014    0.006084965482
