14

 N    1.108276668974    1.109624600381   -0.002466500403
 C    0.022829726071    1.932383570209    0.000675370818
 H    0.214350565953    3.007440542708   -0.001829227724
 C    1.026412948292   -0.309645861345   -0.001448831519
 O    2.070156195610   -0.962887751406   -0.003929672831
 N   -0.247425140389   -0.851785492938    0.009164402611
 C   -1.305111253202   -0.050433462063    0.006671357783
 N   -2.537104369658   -0.654232491143   -0.038734465426
 H   -2.546038837979   -1.653926377654    0.130836143139
 H   -3.355682113861   -0.127804171743    0.236165659371
 C   -1.236529254768    1.390943377132    0.003187924117
 H   -2.125052970453    2.022260968376   -0.006294029910
 H    2.052216791901    1.484272812823   -0.005772396631
LI    2.006095846826   -2.761716429891    0.006637122941
