14

 N    1.108488167094    1.115563514087   -0.002501387154
 C    0.023041224191    1.938322483915    0.000640484067
 H    0.214562064073    3.013379456414   -0.001864114475
 C    1.026624446412   -0.303706947639   -0.001483718270
 O    2.070367693730   -0.956948837700   -0.003964559582
 N   -0.247213642269   -0.845846579232    0.009129515860
 C   -1.304899755082   -0.044494548357    0.006636471032
 N   -2.536892871538   -0.648293577437   -0.038769352177
 H   -2.545827339859   -1.647987463948    0.130801256388
 H   -3.355470615741   -0.121865258037    0.236130772620
 C   -1.236317756648    1.396882290838    0.003153037366
 H   -2.124841472333    2.028199882082   -0.006328916661
 H    2.052428290021    1.490211726529   -0.005807283382
LI    2.002748436680   -2.855712442768    0.007189280399
