14

 N    1.125619514799    1.596615524232   -0.005327213986
 C    0.040172571896    2.419374494060   -0.002185342765
 H    0.231693411778    3.494431466559   -0.004689941307
 C    1.043755794117    0.177345062506   -0.004309545102
 O    2.087499041435   -0.475896827555   -0.006790386414
 N   -0.230082294564   -0.364794569087    0.006303689028
 C   -1.287768407377    0.436557461788    0.003810644200
 N   -2.519761523833   -0.167241567292   -0.041595179009
 H   -2.528695992154   -1.166935453803    0.127975429556
 H   -3.338339268036    0.359186752108    0.233304945788
 C   -1.219186408943    1.877934300983    0.000327210534
 H   -2.107710124628    2.509251892227   -0.009154743493
 H    2.069559637726    1.971263736674   -0.008633110214
LI    1.731608214858  -10.469389485806    0.051914034540
