14

 N    1.108911163333    1.127441341498   -0.002571160656
 C    0.023464220430    1.950200311326    0.000570710565
 H    0.214985060312    3.025257283825   -0.001933887977
 C    1.027047442651   -0.291829120228   -0.001553491772
 O    2.070790689969   -0.945071010289   -0.004034333084
 N   -0.246790646030   -0.833968751821    0.009059742358
 C   -1.304476758843   -0.032616720946    0.006566697530
 N   -2.536469875299   -0.636415750026   -0.038839125679
 H   -2.545404343620   -1.636109636537    0.130731482886
 H   -3.355047619502   -0.109987430626    0.236060999118
 C   -1.235894760409    1.408760118249    0.003083263864
 H   -2.124418476094    2.040077709493   -0.006398690163
 H    2.052851286260    1.502089553940   -0.005877056884
LI    1.996053616388   -3.043704468522    0.008293595317
