14

 N    1.109122661453    1.133380255203   -0.002606047407
 C    0.023675718550    1.956139225031    0.000535823814
 H    0.215196558432    3.031196197530   -0.001968774728
 C    1.027258940771   -0.285890206523   -0.001588378523
 O    2.071002188089   -0.939132096584   -0.004069219835
 N   -0.246579147910   -0.828029838116    0.009024855607
 C   -1.304265260723   -0.026677807241    0.006531810779
 N   -2.536258377179   -0.630476836321   -0.038874012430
 H   -2.545192845500   -1.630170722832    0.130696596135
 H   -3.354836121382   -0.104048516921    0.236026112367
 C   -1.235683262289    1.414699031954    0.003048377113
 H   -2.124206977974    2.046016623198   -0.006433576914
 H    2.053062784380    1.508028467645   -0.005911943635
LI    1.992706206242   -3.137700481399    0.008845752775
