14

 N    1.109334159573    1.139319168909   -0.002640934158
 C    0.023887216670    1.962078138737    0.000500937063
 H    0.215408056552    3.037135111236   -0.002003661479
 C    1.027470438891   -0.279951292817   -0.001623265274
 O    2.071213686209   -0.933193182878   -0.004104106586
 N   -0.246367649790   -0.822090924410    0.008989968856
 C   -1.304053762603   -0.020738893535    0.006496924028
 N   -2.536046879059   -0.624537922615   -0.038908899181
 H   -2.544981347380   -1.624231809126    0.130661709384
 H   -3.354624623262   -0.098109603215    0.235991225616
 C   -1.235471764169    1.420637945660    0.003013490362
 H   -2.123995479854    2.051955536904   -0.006468463665
 H    2.053274282500    1.513967381351   -0.005946830386
LI    1.989358796096   -3.231696494276    0.009397910234
