14

 N    1.110391650172    1.169013737436   -0.002815367913
 C    0.024944707269    1.991772707264    0.000326503308
 H    0.216465547151    3.066829679763   -0.002178095234
 C    1.028527929490   -0.250256724290   -0.001797699029
 O    2.072271176808   -0.903498614351   -0.004278540341
 N   -0.245310159191   -0.792396355883    0.008815535101
 C   -1.302996272004    0.008955674992    0.006322490273
 N   -2.534989388460   -0.594843354088   -0.039083332936
 H   -2.543923856781   -1.594537240599    0.130487275629
 H   -3.353567132663   -0.068415034688    0.235816791861
 C   -1.234414273570    1.450332514187    0.002839056607
 H   -2.122937989255    2.081650105431   -0.006642897420
 H    2.054331773099    1.543661949878   -0.006121264141
LI    1.972621745367   -3.701676558661    0.012158697526
