14

 N    1.111026144531    1.186830478553   -0.002920028166
 C    0.025579201628    2.009589448381    0.000221843055
 H    0.217100041510    3.084646420880   -0.002282755487
 C    1.029162423849   -0.232439983173   -0.001902359282
 O    2.072905671167   -0.885681873234   -0.004383200594
 N   -0.244675664832   -0.774579614766    0.008710874848
 C   -1.302361777645    0.026772416109    0.006217830020
 N   -2.534354894101   -0.577026612971   -0.039187993189
 H   -2.543289362422   -1.576720499482    0.130382615376
 H   -3.352932638304   -0.050598293571    0.235712131608
 C   -1.233779779211    1.468149255304    0.002734396354
 H   -2.122303494896    2.099466846548   -0.006747557673
 H    2.054966267458    1.561478690995   -0.006225924394
LI    1.962579514929   -3.983664597292    0.013815169902
