14

 N    1.112718129490    1.234341788197   -0.003199122174
 C    0.027271186587    2.057100758025   -0.000057250953
 H    0.218792026469    3.132157730524   -0.002561849495
 C    1.030854408808   -0.184928673529   -0.002181453290
 O    2.074597656126   -0.838170563590   -0.004662294602
 N   -0.242983679873   -0.727068305122    0.008431780840
 C   -1.300669792686    0.074283725753    0.005938736012
 N   -2.532662909142   -0.529515303327   -0.039467087197
 H   -2.541597377463   -1.529209189838    0.130103521368
 H   -3.351240653345   -0.003086983927    0.235433037600
 C   -1.232087794252    1.515660564948    0.002455302346
 H   -2.120611509937    2.146978156192   -0.007026651681
 H    2.056658252417    1.608990000639   -0.006505018402
LI    1.935800233761   -4.735632700308    0.018232429570
