14

 N    1.112929627610    1.240280701902   -0.003234008925
 C    0.027482684707    2.063039671730   -0.000092137704
 H    0.219003524589    3.138096644229   -0.002596736246
 C    1.031065906928   -0.178989759824   -0.002216340041
 O    2.074809154246   -0.832231649885   -0.004697181353
 N   -0.242772181753   -0.721129391417    0.008396894089
 C   -1.300458294566    0.080222639458    0.005903849261
 N   -2.532451411022   -0.523576389622   -0.039501973948
 H   -2.541385879343   -1.523270276133    0.130068634617
 H   -3.351029155225    0.002851929778    0.235398150849
 C   -1.231876296132    1.521599478653    0.002420415595
 H   -2.120400011817    2.152917069897   -0.007061538432
 H    2.056869750537    1.614928914344   -0.006539905153
LI    1.932452823615   -4.829628713185    0.018784587028
