14

 N    1.113141125730    1.246219615608   -0.003268895676
 C    0.027694182827    2.068978585436   -0.000127024455
 H    0.219215022709    3.144035557935   -0.002631622997
 C    1.031277405048   -0.173050846118   -0.002251226792
 O    2.075020652366   -0.826292736179   -0.004732068104
 N   -0.242560683633   -0.715190477711    0.008362007338
 C   -1.300246796446    0.086161553164    0.005868962510
 N   -2.532239912902   -0.517637475916   -0.039536860699
 H   -2.541174381223   -1.517331362427    0.130033747866
 H   -3.350817657105    0.008790843484    0.235363264098
 C   -1.231664798012    1.527538392359    0.002385528844
 H   -2.120188513697    2.158855983603   -0.007096425183
 H    2.057081248657    1.620867828050   -0.006574791904
LI    1.929105413469   -4.923624726062    0.019336744487
