14

 N    1.113352623849    1.252158529313   -0.003303782427
 C    0.027905680946    2.074917499141   -0.000161911206
 H    0.219426520828    3.149974471640   -0.002666509748
 C    1.031488903167   -0.167111932413   -0.002286113543
 O    2.075232150485   -0.820353822474   -0.004766954855
 N   -0.242349185514   -0.709251564006    0.008327120587
 C   -1.300035298327    0.092100466869    0.005834075759
 N   -2.532028414783   -0.511698562211   -0.039571747450
 H   -2.540962883104   -1.511392448722    0.129998861115
 H   -3.350606158986    0.014729757189    0.235328377347
 C   -1.231453299893    1.533477306064    0.002350642093
 H   -2.119977015578    2.164794897308   -0.007131311934
 H    2.057292746776    1.626806741755   -0.006609678655
LI    1.925758003323   -5.017620738939    0.019888901946
