14

 N    1.114621612568    1.287792011546   -0.003513102933
 C    0.029174669665    2.110550981374   -0.000371231712
 H    0.220695509547    3.185607953873   -0.002875830254
 C    1.032757891886   -0.131478450180   -0.002495434049
 O    2.076501139204   -0.784720340241   -0.004976275361
 N   -0.241080196795   -0.673618081773    0.008117800081
 C   -1.298766309608    0.127733949102    0.005624755253
 N   -2.530759426064   -0.476065079978   -0.039781067956
 H   -2.539693894385   -1.475758966489    0.129789540609
 H   -3.349337170267    0.050363239422    0.235119056841
 C   -1.230184311174    1.569110788297    0.002141321587
 H   -2.118708026859    2.200428379541   -0.007340632440
 H    2.058561735495    1.662440223988   -0.006818999161
LI    1.905673542448   -5.581596816201    0.023201846697
