14

 N    1.116313597527    1.335303321190   -0.003792196942
 C    0.030866654624    2.158062291018   -0.000650325721
 H    0.222387494506    3.233119263517   -0.003154924263
 C    1.034449876845   -0.083967140536   -0.002774528058
 O    2.078193124163   -0.737209030597   -0.005255369370
 N   -0.239388211836   -0.626106772129    0.007838706072
 C   -1.297074324649    0.175245258746    0.005345661244
 N   -2.529067441105   -0.428553770334   -0.040060161965
 H   -2.538001909426   -1.428247656845    0.129510446600
 H   -3.347645185308    0.097874549066    0.234839962832
 C   -1.228492326215    1.616622097941    0.001862227578
 H   -2.117016041900    2.247939689185   -0.007619726449
 H    2.060253720454    1.709951533632   -0.007098093170
LI    1.878894261280   -6.333564919217    0.027619106365
