14

 N    1.116948091886    1.353120062307   -0.003896857195
 C    0.031501148983    2.175879032135   -0.000754985974
 H    0.223021988865    3.250936004634   -0.003259584516
 C    1.035084371204   -0.066150399419   -0.002879188311
 O    2.078827618522   -0.719392289480   -0.005360029623
 N   -0.238753717477   -0.608290031012    0.007734045819
 C   -1.296439830290    0.193061999863    0.005241000991
 N   -2.528432946746   -0.410737029217   -0.040164822218
 H   -2.537367415067   -1.410430915728    0.129405786347
 H   -3.347010690949    0.115691290183    0.234735302579
 C   -1.227857831856    1.634438839058    0.001757567325
 H   -2.116381547541    2.265756430302   -0.007724386702
 H    2.060888214813    1.727768274749   -0.007202753423
LI    1.868852030842   -6.615552957848    0.029275578740
