14

 N    1.117371088126    1.364997889718   -0.003966630697
 C    0.031924145223    2.187756859546   -0.000824759476
 H    0.223444985105    3.262813832045   -0.003329358018
 C    1.035507367444   -0.054272572008   -0.002948961813
 O    2.079250614762   -0.707514462069   -0.005429803125
 N   -0.238330721237   -0.596412203601    0.007664272317
 C   -1.296016834050    0.204939827274    0.005171227489
 N   -2.528009950506   -0.398859201806   -0.040234595720
 H   -2.536944418827   -1.398553088317    0.129336012845
 H   -3.346587694709    0.127569117594    0.234665529077
 C   -1.227434835616    1.646316666469    0.001687793823
 H   -2.115958551301    2.277634257713   -0.007794160204
 H    2.061311211053    1.739646102160   -0.007272526925
LI    1.862157210550   -6.803544983602    0.030379893657
