14

 N    1.117582586246    1.370936803423   -0.004001517448
 C    0.032135643343    2.193695773251   -0.000859646227
 H    0.223656483225    3.268752745750   -0.003364244769
 C    1.035718865564   -0.048333658303   -0.002983848564
 O    2.079462112882   -0.701575548364   -0.005464689876
 N   -0.238119223117   -0.590473289896    0.007629385566
 C   -1.295805335930    0.210878740979    0.005136340738
 N   -2.527798452386   -0.392920288101   -0.040269482471
 H   -2.536732920707   -1.392614174612    0.129301126094
 H   -3.346376196589    0.133508031299    0.234630642326
 C   -1.227223337496    1.652255580174    0.001652907072
 H   -2.115747053181    2.283573171418   -0.007829046955
 H    2.061522709173    1.745585015865   -0.007307413676
LI    1.858809800404   -6.897540996479    0.030932051116
