14

 N    1.117794084366    1.376875717129   -0.004036404199
 C    0.032347141463    2.199634686957   -0.000894532978
 H    0.223867981345    3.274691659456   -0.003399131520
 C    1.035930363684   -0.042394744597   -0.003018735315
 O    2.079673611002   -0.695636634658   -0.005499576627
 N   -0.237907724997   -0.584534376190    0.007594498815
 C   -1.295593837810    0.216817654685    0.005101453987
 N   -2.527586954266   -0.386981374395   -0.040304369222
 H   -2.536521422587   -1.386675260906    0.129266239343
 H   -3.346164698469    0.139446945005    0.234595755575
 C   -1.227011839376    1.658194493880    0.001618020321
 H   -2.115535555061    2.289512085124   -0.007863933706
 H    2.061734207293    1.751523929571   -0.007342300427
LI    1.855462390258   -6.991537009356    0.031484208575
