14

 N    1.118005582485    1.382814630834   -0.004071290950
 C    0.032558639582    2.205573600662   -0.000929419729
 H    0.224079479464    3.280630573161   -0.003434018271
 C    1.036141861803   -0.036455830892   -0.003053622066
 O    2.079885109121   -0.689697720953   -0.005534463378
 N   -0.237696226878   -0.578595462485    0.007559612064
 C   -1.295382339691    0.222756568390    0.005066567236
 N   -2.527375456147   -0.381042460690   -0.040339255973
 H   -2.536309924468   -1.380736347201    0.129231352592
 H   -3.345953200350    0.145385858710    0.234560868824
 C   -1.226800341257    1.664133407585    0.001583133570
 H   -2.115324056942    2.295450998829   -0.007898820457
 H    2.061945705412    1.757462843276   -0.007377187178
LI    1.852114980112   -7.085533022233    0.032036366033
