14

 N    1.118428578725    1.394692458245   -0.004141064452
 C    0.032981635822    2.217451428073   -0.000999193231
 H    0.224502475704    3.292508400572   -0.003503791773
 C    1.036564858043   -0.024578003481   -0.003123395568
 O    2.080308105361   -0.677819893542   -0.005604236880
 N   -0.237273230638   -0.566717635074    0.007489838562
 C   -1.294959343451    0.234634395801    0.004996793734
 N   -2.526952459907   -0.369164633279   -0.040409029475
 H   -2.535886928228   -1.368858519790    0.129161579090
 H   -3.345530204110    0.157263686121    0.234491095322
 C   -1.226377345017    1.676011234996    0.001513360068
 H   -2.114901060702    2.307328826240   -0.007968593959
 H    2.062368701652    1.769340670687   -0.007446960680
LI    1.845420159820   -7.273525047987    0.033140680950
