14

 N    1.119274571204    1.418448113067   -0.004280611456
 C    0.033827628301    2.241207082895   -0.001138740235
 H    0.225348468183    3.316264055394   -0.003643338777
 C    1.037410850522   -0.000822348659   -0.003262942572
 O    2.081154097840   -0.654064238720   -0.005743783884
 N   -0.236427238159   -0.542961980252    0.007350291558
 C   -1.294113350972    0.258390050623    0.004857246730
 N   -2.526106467428   -0.345408978457   -0.040548576479
 H   -2.535040935749   -1.345102864968    0.129022032086
 H   -3.344684211631    0.181019340943    0.234351548318
 C   -1.225531352538    1.699766889818    0.001373813064
 H   -2.114055068223    2.331084481062   -0.008108140963
 H    2.063214694131    1.793096325509   -0.007586507684
LI    1.832030519237   -7.649509099495    0.035349310784
