14

 N    1.119697567444    1.430325940478   -0.004350384958
 C    0.034250624541    2.253084910306   -0.001208513737
 H    0.225771464423    3.328141882805   -0.003713112279
 C    1.037833846762    0.011055478752   -0.003332716074
 O    2.081577094080   -0.642186411309   -0.005813557386
 N   -0.236004241919   -0.531084152841    0.007280518056
 C   -1.293690354732    0.270267878034    0.004787473228
 N   -2.525683471188   -0.333531151046   -0.040618349981
 H   -2.534617939509   -1.333225037557    0.128952258584
 H   -3.344261215391    0.192897168354    0.234281774816
 C   -1.225108356298    1.711644717229    0.001304039562
 H   -2.113632071983    2.342962308473   -0.008177914465
 H    2.063637690371    1.804974152920   -0.007656281186
LI    1.825335698945   -7.837501125249    0.036453625701
