14

 N    1.120966556163    1.465959422711   -0.004559705464
 C    0.035519613260    2.288718392539   -0.001417834243
 H    0.227040453142    3.363775365038   -0.003922432785
 C    1.039102835481    0.046688960985   -0.003542036580
 O    2.082846082799   -0.606552929076   -0.006022877892
 N   -0.234735253200   -0.495450670608    0.007071197550
 C   -1.292421366013    0.305901360267    0.004578152722
 N   -2.524414482469   -0.297897668813   -0.040827670487
 H   -2.533348950790   -1.297591555324    0.128742938078
 H   -3.342992226672    0.228530650587    0.234072454310
 C   -1.223839367579    1.747278199462    0.001094719056
 H   -2.112363083264    2.378595790706   -0.008387234971
 H    2.064906679090    1.840607635153   -0.007865601692
LI    1.805251238069   -8.401477202511    0.039766570452
