14

 N    1.121812548642    1.489715077533   -0.004699252468
 C    0.036365605739    2.312474047361   -0.001557381247
 H    0.227886445621    3.387531019860   -0.004061979789
 C    1.039948827960    0.070444615807   -0.003681583584
 O    2.083692075278   -0.582797274254   -0.006162424896
 N   -0.233889260721   -0.471695015786    0.006931650546
 C   -1.291575373534    0.329657015089    0.004438605718
 N   -2.523568489990   -0.274142013991   -0.040967217491
 H   -2.532502958311   -1.273835900502    0.128603391074
 H   -3.342146234193    0.252286305409    0.233932907306
 C   -1.222993375100    1.771033854284    0.000955172052
 H   -2.111517090785    2.402351445528   -0.008526781975
 H    2.065752671569    1.864363289975   -0.008005148696
LI    1.791861597485   -8.777461254019    0.041975200286
