14

 N    1.122235544882    1.501592904944   -0.004769025970
 C    0.036788601979    2.324351874772   -0.001627154749
 H    0.228309441861    3.399408847271   -0.004131753291
 C    1.040371824200    0.082322443218   -0.003751357086
 O    2.084115071518   -0.570919446843   -0.006232198398
 N   -0.233466264481   -0.459817188375    0.006861877044
 C   -1.291152377294    0.341534842500    0.004368832216
 N   -2.523145493750   -0.262264186580   -0.041036990993
 H   -2.532079962071   -1.261958073091    0.128533617572
 H   -3.341723237953    0.264164132820    0.233863133804
 C   -1.222570378860    1.782911681695    0.000885398550
 H   -2.111094094545    2.414229272939   -0.008596555477
 H    2.066175667809    1.876241117386   -0.008074922198
LI    1.785166777193   -8.965453279774    0.043079515204
