14

 N    1.122658541121    1.513470732355   -0.004838799472
 C    0.037211598218    2.336229702183   -0.001696928251
 H    0.228732438100    3.411286674682   -0.004201526793
 C    1.040794820439    0.094200270629   -0.003821130588
 O    2.084538067757   -0.559041619432   -0.006301971900
 N   -0.233043268242   -0.447939360964    0.006792103542
 C   -1.290729381055    0.353412669911    0.004299058714
 N   -2.522722497511   -0.250386359169   -0.041106764495
 H   -2.531656965832   -1.250080245680    0.128463844070
 H   -3.341300241714    0.276041960231    0.233793360302
 C   -1.222147382621    1.794789509106    0.000815625048
 H   -2.110671098306    2.426107100350   -0.008666328979
 H    2.066598664048    1.888118944797   -0.008144695700
LI    1.778471956901   -9.153445305528    0.044183830121
