14

 N    1.122870039241    1.519409646061   -0.004873686223
 C    0.037423096338    2.342168615889   -0.001731815002
 H    0.228943936220    3.417225588388   -0.004236413544
 C    1.041006318559    0.100139184335   -0.003856017339
 O    2.084749565877   -0.553102705726   -0.006336858651
 N   -0.232831770122   -0.442000447258    0.006757216791
 C   -1.290517882935    0.359351583617    0.004264171963
 N   -2.522510999391   -0.244447445463   -0.041141651246
 H   -2.531445467712   -1.244141331974    0.128428957319
 H   -3.341088743594    0.281980873937    0.233758473551
 C   -1.221935884501    1.800728422812    0.000780738297
 H   -2.110459600186    2.432046014056   -0.008701215730
 H    2.066810162168    1.894057858503   -0.008179582451
LI    1.775124546755   -9.247441318405    0.044735987579
