14

 N    1.123504533601    1.537226387177   -0.004978346476
 C    0.038057590698    2.359985357005   -0.001836475255
 H    0.229578430580    3.435042329504   -0.004341073797
 C    1.041640812919    0.117955925451   -0.003960677592
 O    2.085384060237   -0.535285964610   -0.006441518904
 N   -0.232197275762   -0.424183706142    0.006652556538
 C   -1.289883388575    0.377168324733    0.004159511710
 N   -2.521876505031   -0.226630704347   -0.041246311499
 H   -2.530810973352   -1.226324590858    0.128324297066
 H   -3.340454249234    0.299797615053    0.233653813298
 C   -1.221301390141    1.818545163928    0.000676078044
 H   -2.109825105826    2.449862755172   -0.008805875983
 H    2.067444656528    1.911874599619   -0.008284242704
LI    1.765082316318   -9.529429357036    0.046392459955
