14

 N    1.123927529840    1.549104214588   -0.005048119978
 C    0.038480586937    2.371863184416   -0.001906248757
 H    0.230001426819    3.446920156915   -0.004410847299
 C    1.042063809158    0.129833752862   -0.004030451094
 O    2.085807056476   -0.523408137199   -0.006511292406
 N   -0.231774279523   -0.412305878731    0.006582783036
 C   -1.289460392336    0.389046152144    0.004089738208
 N   -2.521453508792   -0.214752876936   -0.041316085001
 H   -2.530387977113   -1.214446763447    0.128254523564
 H   -3.340031252995    0.311675442464    0.233584039796
 C   -1.220878393902    1.830422991339    0.000606304542
 H   -2.109402109587    2.461740582583   -0.008875649485
 H    2.067867652767    1.923752427030   -0.008354016206
LI    1.758387496026   -9.717421382790    0.047496774872
