14

 N    1.124139027960    1.555043128294   -0.005083006729
 C    0.038692085057    2.377802098122   -0.001941135508
 H    0.230212924939    3.452859070621   -0.004445734050
 C    1.042275307278    0.135772666568   -0.004065337845
 O    2.086018554596   -0.517469223493   -0.006546179157
 N   -0.231562781403   -0.406366965025    0.006547896285
 C   -1.289248894216    0.394985065850    0.004054851457
 N   -2.521242010672   -0.208813963230   -0.041350971752
 H   -2.530176478993   -1.208507849741    0.128219636813
 H   -3.339819754875    0.317614356170    0.233549153045
 C   -1.220666895782    1.836361905045    0.000571417791
 H   -2.109190611467    2.467679496289   -0.008910536236
 H    2.068079150887    1.929691340736   -0.008388902957
LI    1.755040085880   -9.811417395667    0.048048932330
