14

 N    1.124562024200    1.566920955705   -0.005152780231
 C    0.039115081297    2.389679925533   -0.002010909010
 H    0.230635921179    3.464736898032   -0.004515507552
 C    1.042698303518    0.147650493979   -0.004135111347
 O    2.086441550836   -0.505591396082   -0.006615952659
 N   -0.231139785163   -0.394489137614    0.006478122783
 C   -1.288825897976    0.406862893261    0.003985077955
 N   -2.520819014432   -0.196936135819   -0.041420745254
 H   -2.529753482753   -1.196630022330    0.128149863311
 H   -3.339396758635    0.329492183581    0.233479379543
 C   -1.220243899542    1.848239732456    0.000501644289
 H   -2.108767615227    2.479557323700   -0.008980309738
 H    2.068502147127    1.941569168147   -0.008458676459
LI    1.748345265588   -9.999409421421    0.049153247247
