14

 N    1.124773522320    1.572859869410   -0.005187666982
 C    0.039326579417    2.395618839238   -0.002045795761
 H    0.230847419299    3.470675811737   -0.004550394303
 C    1.042909801638    0.153589407684   -0.004169998098
 O    2.086653048956   -0.499652482377   -0.006650839410
 N   -0.230928287043   -0.388550223909    0.006443236032
 C   -1.288614399856    0.412801806966    0.003950191204
 N   -2.520607516312   -0.190997222114   -0.041455632005
 H   -2.529541984633   -1.190691108625    0.128114976560
 H   -3.339185260515    0.335431097286    0.233444492792
 C   -1.220032401422    1.854178646161    0.000466757538
 H   -2.108556117107    2.485496237405   -0.009015196489
 H    2.068713645247    1.947508081852   -0.008493563210
LI    1.744997855442  -10.093405434298    0.049705404706
