28

 P    2.230674528520   -2.247400274313    0.982393776851
 O    0.965774528520   -1.932180274313    1.776533776851
 O    2.551734528520   -1.359270274313   -0.230676223149
 O    3.604384528520   -2.191860274313    1.945633776851
 O    2.333404528520   -3.882140274313    0.668713776851
 C    4.730024528520   -2.932590274313    1.429003776851
 H    5.627284528520   -2.470090274313    1.860753776851
 H    4.791954528520   -2.862640274313    0.327973776851
 H    4.670634528520   -3.989690274313    1.729043776851
 C    2.118184528520   -4.621060274313    1.910093776851
 H    2.467644528520   -5.649370274313    1.737413776851
 H    1.049744528520   -4.632560274313    2.159023776851
 H    2.679764528520   -4.163420274313    2.737853776851
CS   -3.175835471480    0.281389725687    1.199133776851
CS    2.265364528520    0.635909725687   -1.600106223149
 P   -1.262624254618    1.272092624595   -0.556061817193
 O   -2.636335040429    1.216549648277   -1.519303100999
 O   -1.365356457397    2.906833109184   -0.242385239396
 O    0.002268896005    0.956864381245   -1.350206021354
 O   -1.583678593075    0.383963955087    0.657006650394
 C   -3.761973000081    1.957277734224   -1.002665756162
 H   -4.659232675483    1.494784460950   -1.434417371182
 H   -3.823900960133    1.887331986913    0.098368040003
 H   -3.702585270519    3.014387199281   -1.302710581755
 C   -1.150136956677    3.645747490301   -1.483770942508
 H   -1.499598964066    4.674058043757   -1.311098434148
 H   -0.081693432655    3.657248194986   -1.732705600937
 H   -1.711720894270    3.188106222463   -2.311531747940
