28

 P    2.312199682528   -2.329536735701    1.018297613604
 O    1.047299682528   -2.014316735701    1.812437613604
 O    2.633259682528   -1.441406735701   -0.194772386396
 O    3.685909682528   -2.273996735701    1.981537613604
 O    2.414929682528   -3.964276735701    0.704617613604
 C    4.811549682528   -3.014726735701    1.464907613604
 H    5.708809682528   -2.552226735701    1.896657613604
 H    4.873479682528   -2.944776735701    0.363877613604
 H    4.752159682528   -4.071826735701    1.764947613604
 C    2.199709682528   -4.703196735701    1.945997613604
 H    2.549169682528   -5.731506735701    1.773317613604
 H    1.131269682528   -4.714696735701    2.194927613604
 H    2.761289682528   -4.245556735701    2.773757613604
CS   -3.094310317472    0.199253264299    1.235037613604
CS    2.346889682528    0.553773264299   -1.564202386396
 P   -1.517511093582    1.528890704420   -0.668314477958
 O   -2.891221879394    1.473347728102   -1.631555761764
 O   -1.620243296362    3.163631189009   -0.354637900161
 O   -0.252617942960    1.213662461069   -1.462458682119
 O   -1.838565432040    0.640762034911    0.544753989629
 C   -4.016859839045    2.214075814049   -1.114918416926
 H   -4.914119514448    1.751582540774   -1.546670031946
 H   -4.078787799098    2.144130066737   -0.013884620762
 H   -3.957472109484    3.271185279105   -1.414963242520
 C   -1.405023795642    3.902545570125   -1.596023603272
 H   -1.754485803031    4.930856123581   -1.423351094913
 H   -0.336580271620    3.914046274810   -1.844958261702
 H   -1.966607733235    3.444904302287   -2.423784408704
