28

 P    2.328504713330   -2.345964027979    1.025478380954
 O    1.063604713330   -2.030744027979    1.819618380954
 O    2.649564713330   -1.457834027979   -0.187591619046
 O    3.702214713330   -2.290424027979    1.988718380954
 O    2.431234713330   -3.980704027979    0.711798380954
 C    4.827854713330   -3.031154027979    1.472088380954
 H    5.725114713330   -2.568654027979    1.903838380954
 H    4.889784713330   -2.961204027979    0.371058380954
 H    4.768464713330   -4.088254027979    1.772128380954
 C    2.216014713330   -4.719624027979    1.953178380954
 H    2.565474713330   -5.747934027979    1.780498380954
 H    1.147574713330   -4.731124027979    2.202108380954
 H    2.777594713330   -4.261984027979    2.780938380954
CS   -3.078005286670    0.182825972021    1.242218380954
CS    2.363194713330    0.537345972021   -1.557021619046
 P   -1.568488461375    1.580250320385   -0.690765010111
 O   -2.942199247186    1.524707344067   -1.654006293916
 O   -1.671220664155    3.214990804973   -0.377088432314
 O   -0.303595310753    1.265022077034   -1.484909214272
 O   -1.889542799833    0.692121650876    0.522303457476
 C   -4.067837206838    2.265435430013   -1.137368949079
 H   -4.965096882241    1.802942156739   -1.569120564099
 H   -4.129765166891    2.195489682702   -0.036335152915
 H   -4.008449477277    3.322544895070   -1.437413774673
 C   -1.456001163435    3.953905186090   -1.618474135425
 H   -1.805463170824    4.982215739546   -1.445801627066
 H   -0.387557639413    3.965405890775   -1.867408793855
 H   -2.017585101028    3.496263918252   -2.446234940857
