28

 P    2.377419805736   -2.395245904811    1.047020683006
 O    1.112519805736   -2.080025904811    1.841160683006
 O    2.698479805736   -1.507115904811   -0.166049316994
 O    3.751129805736   -2.339705904811    2.010260683006
 O    2.480149805736   -4.029985904811    0.733340683006
 C    4.876769805736   -3.080435904811    1.493630683006
 H    5.774029805736   -2.617935904811    1.925380683006
 H    4.938699805736   -3.010485904811    0.392600683006
 H    4.817379805736   -4.137535904811    1.793670683006
 C    2.264929805736   -4.768905904811    1.974720683006
 H    2.614389805736   -5.797215904811    1.802040683006
 H    1.196489805736   -4.780405904811    2.223650683006
 H    2.826509805736   -4.311265904811    2.802480683006
CS   -3.029090194264    0.133544095189    1.263760683006
CS    2.412109805736    0.488064095189   -1.535479316994
 P   -1.721420564754    1.734329168279   -0.758116606570
 O   -3.095131350565    1.678786191961   -1.721357890375
 O   -1.824152767534    3.369069652868   -0.444440028773
 O   -0.456527414132    1.419100924929   -1.552260810731
 O   -2.042474903212    0.846200498770    0.454951861017
 C   -4.220769310217    2.419514277908   -1.204720545538
 H   -5.118028985620    1.957021004634   -1.636472160558
 H   -4.282697270270    2.349568530597   -0.103686749374
 H   -4.161381580655    3.476623742964   -1.504765371132
 C   -1.608933266814    4.107984033984   -1.685825731884
 H   -1.958395274202    5.136294587440   -1.513153223525
 H   -0.540489742792    4.119484738669   -1.934760390314
 H   -2.170517204407    3.650342766147   -2.513586537316
