28

 P    2.393724836537   -2.411673197089    1.054201450357
 O    1.128824836537   -2.096453197089    1.848341450357
 O    2.714784836537   -1.523543197089   -0.158868549643
 O    3.767434836537   -2.356133197089    2.017441450357
 O    2.496454836537   -4.046413197089    0.740521450357
 C    4.893074836537   -3.096863197089    1.500811450357
 H    5.790334836537   -2.634363197089    1.932561450357
 H    4.955004836537   -3.026913197089    0.399781450357
 H    4.833684836537   -4.153963197089    1.800851450357
 C    2.281234836537   -4.785333197089    1.981901450357
 H    2.630694836537   -5.813643197089    1.809221450357
 H    1.212794836537   -4.796833197089    2.230831450357
 H    2.842814836537   -4.327693197089    2.809661450357
CS   -3.012785163463    0.117116802911    1.270941450357
CS    2.428414836537    0.471636802911   -1.528298549643
 P   -1.772397932547    1.785688784244   -0.780567138722
 O   -3.146108718358    1.730145807926   -1.743808422528
 O   -1.875130135327    3.420429268833   -0.466890560926
 O   -0.507504781925    1.470460540894   -1.574711342884
 O   -2.093452271005    0.897560114735    0.432501328865
 C   -4.271746678010    2.470873893873   -1.227171077691
 H   -5.169006353413    2.008380620599   -1.658922692711
 H   -4.333674638063    2.400928146562   -0.126137281527
 H   -4.212358948448    3.527983358929   -1.527215903285
 C   -1.659910634607    4.159343649949   -1.708276264037
 H   -2.009372641995    5.187654203405   -1.535603755678
 H   -0.591467110585    4.170844354634   -1.957210922467
 H   -2.221494572200    3.701702382112   -2.536037069469
