28

 P    2.442639928943   -2.460955073921    1.075743752409
 O    1.177739928943   -2.145735073921    1.869883752409
 O    2.763699928943   -1.572825073921   -0.137326247591
 O    3.816349928943   -2.405415073921    2.038983752409
 O    2.545369928943   -4.095695073921    0.762063752409
 C    4.941989928943   -3.146145073921    1.522353752409
 H    5.839249928943   -2.683645073921    1.954103752409
 H    5.003919928943   -3.076195073921    0.421323752409
 H    4.882599928943   -4.203245073921    1.822393752409
 C    2.330149928943   -4.834615073921    2.003443752409
 H    2.679609928943   -5.862925073921    1.830763752409
 H    1.261709928943   -4.846115073921    2.252373752409
 H    2.891729928943   -4.376975073921    2.831203752409
CS   -2.963870071057    0.067834926079    1.292483752409
CS    2.477329928943    0.422354926079   -1.506756247591
 P   -1.925330035926    1.939767632139   -0.847918735181
 O   -3.299040821737    1.884224655821   -1.811160018987
 O   -2.028062238706    3.574508116727   -0.534242157385
 O   -0.660436885304    1.624539388788   -1.642062939343
 O   -2.246384374384    1.051638962630    0.365149732406
 C   -4.424678781389    2.624952741767   -1.294522674150
 H   -5.321938456792    2.162459468493   -1.726274289170
 H   -4.486606741442    2.555006994456   -0.193488877985
 H   -4.365291051827    3.682062206824   -1.594567499744
 C   -1.812842737986    4.313422497844   -1.775627860496
 H   -2.162304745374    5.341733051300   -1.602955352137
 H   -0.744399213964    4.324923202529   -2.024562518926
 H   -2.374426675579    3.855781230006   -2.603388665928
