28

 P    2.475249990546   -2.493809658476    1.090105287110
 O    1.210349990546   -2.178589658476    1.884245287110
 O    2.796309990546   -1.605679658476   -0.122964712890
 O    3.848959990546   -2.438269658476    2.053345287110
 O    2.577979990546   -4.128549658476    0.776425287110
 C    4.974599990546   -3.178999658476    1.536715287110
 H    5.871859990546   -2.716499658476    1.968465287110
 H    5.036529990546   -3.109049658476    0.435685287110
 H    4.915209990546   -4.236099658476    1.836755287110
 C    2.362759990546   -4.867469658476    2.017805287110
 H    2.712219990546   -5.895779658476    1.845125287110
 H    1.294319990546   -4.878969658476    2.266735287110
 H    2.924339990546   -4.409829658476    2.845565287110
CS   -2.931260009454    0.034980341524    1.306845287110
CS    2.509939990546    0.389500341524   -1.492394712890
 P   -2.027284771512    2.042486864068   -0.892819799487
 O   -3.400995557323    1.986943887750   -1.856061083293
 O   -2.130016974292    3.677227348657   -0.579143221691
 O   -0.762391620890    1.727258620718   -1.686964003649
 O   -2.348339109970    1.154358194559    0.320248668100
 C   -4.526633516975    2.727671973697   -1.339423738456
 H   -5.423893192378    2.265178700423   -1.771175353476
 H   -4.588561477028    2.657726226386   -0.238389942291
 H   -4.467245787413    3.784781438754   -1.639468564049
 C   -1.914797473572    4.416141729774   -1.820528924802
 H   -2.264259480960    5.444452283230   -1.647856416443
 H   -0.846353949550    4.427642434459   -2.069463583232
 H   -2.476381411165    3.958500461936   -2.648289730234
