28

 P    2.589385206159   -2.608800704419    1.140370658565
 O    1.324485206159   -2.293580704419    1.934510658565
 O    2.910445206159   -1.720670704419   -0.072699341435
 O    3.963095206159   -2.553260704419    2.103610658565
 O    2.692115206159   -4.243540704419    0.826690658565
 C    5.088735206159   -3.293990704419    1.586980658565
 H    5.985995206159   -2.831490704419    2.018730658565
 H    5.150665206159   -3.224040704419    0.485950658565
 H    5.029345206159   -4.351090704419    1.887020658565
 C    2.476895206159   -4.982460704419    2.068070658565
 H    2.826355206159   -6.010770704419    1.895390658565
 H    1.408455206159   -4.993960704419    2.317000658565
 H    3.038475206159   -4.524820704419    2.895830658565
CS   -2.817124793841   -0.080010704419    1.357110658565
CS    2.624075206159    0.274509295581   -1.442129341435
 P   -2.384126346063    2.402004175822   -1.049973524558
 O   -3.757837131874    2.346461199504   -2.013214808364
 O   -2.486858548842    4.036744660411   -0.736296946761
 O   -1.119233195441    2.086775932472   -1.844117728719
 O   -2.705180684521    1.513875506313    0.163094943029
 C   -4.883475091526    3.087189285451   -1.496577463527
 H   -5.780734766929    2.624696012177   -1.928329078547
 H   -4.945403051579    3.017243538140   -0.395543667362
 H   -4.824087361964    4.144298750508   -1.796622289120
 C   -2.271639048123    4.775659041528   -1.977682649873
 H   -2.621101055511    5.803969594984   -1.805010141513
 H   -1.203195524101    4.787159746213   -2.226617308302
 H   -2.833222985716    4.318017773690   -2.805443455305
