28

 P    2.638300298564   -2.658082581252    1.161912960617
 O    1.373400298564   -2.342862581252    1.956052960617
 O    2.959360298564   -1.769952581252   -0.051157039383
 O    4.012010298564   -2.602542581252    2.125152960617
 O    2.741030298564   -4.292822581252    0.848232960617
 C    5.137650298564   -3.343272581252    1.608522960617
 H    6.034910298564   -2.880772581252    2.040272960617
 H    5.199580298564   -3.273322581252    0.507492960617
 H    5.078260298564   -4.400372581252    1.908562960617
 C    2.525810298564   -5.031742581252    2.089612960617
 H    2.875270298564   -6.060052581252    1.916932960617
 H    1.457370298564   -5.043242581252    2.338542960617
 H    3.087390298564   -4.574102581252    2.917372960617
CS   -2.768209701436   -0.129292581252    1.378652960617
CS    2.672990298564    0.225227418748   -1.420587039383
 P   -2.537058449442    2.556083023717   -1.117325121017
 O   -3.910769235253    2.500540047399   -2.080566404823
 O   -2.639790652221    4.190823508306   -0.803648543220
 O   -1.272165298820    2.240854780366   -1.911469325178
 O   -2.858112787900    1.667954354208    0.095743346570
 C   -5.036407194905    3.241268133346   -1.563929059986
 H   -5.933666870308    2.778774860071   -1.995680675006
 H   -5.098335154957    3.171322386035   -0.462895263821
 H   -4.977019465343    4.298377598402   -1.863973885579
 C   -2.424571151501    4.929737889422   -2.045034246332
 H   -2.774033158890    5.958048442878   -1.872361737972
 H   -1.356127627480    4.941238594107   -2.293968904761
 H   -2.986155089094    4.472096621585   -2.872795051764
