28

 P    2.736130483375   -2.756646334917    1.204997564721
 O    1.471230483375   -2.441426334917    1.999137564721
 O    3.057190483375   -1.868516334917   -0.008072435279
 O    4.109840483375   -2.701106334917    2.168237564721
 O    2.838860483375   -4.391386334917    0.891317564721
 C    5.235480483375   -3.441836334917    1.651607564721
 H    6.132740483375   -2.979336334917    2.083357564721
 H    5.297410483375   -3.371886334917    0.550577564721
 H    5.176090483375   -4.498936334917    1.951647564721
 C    2.623640483375   -5.130306334917    2.132697564721
 H    2.973100483375   -6.158616334917    1.960017564721
 H    1.555200483375   -5.141806334917    2.381627564721
 H    3.185220483375   -4.672666334917    2.960457564721
CS   -2.670379516625   -0.227856334917    1.421737564721
CS    2.770820483375    0.126663665083   -1.377502435279
 P   -2.842922656200    2.864240719506   -1.252028313935
 O   -4.216633442011    2.808697743188   -2.215269597740
 O   -2.945654858979    4.498981204095   -0.938351736138
 O   -1.578029505577    2.549012476156   -2.046172518096
 O   -3.163976994657    1.976112049997   -0.038959846348
 C   -5.342271401663    3.549425829135   -1.698632252903
 H   -6.239531077065    3.086932555861   -2.130383867923
 H   -5.404199361715    3.479480081824   -0.597598456739
 H   -5.282883672101    4.606535294191   -1.998677078497
 C   -2.730435358259    5.237895585211   -2.179737439249
 H   -3.079897365648    6.266206138667   -2.007064930890
 H   -1.661991834237    5.249396289896   -2.428672097679
 H   -3.292019295852    4.780254317374   -3.007498244681
