28

 P    2.785045575780   -2.805928211750    1.226539866773
 O    1.520145575780   -2.490708211750    2.020679866773
 O    3.106105575780   -1.917798211750    0.013469866773
 O    4.158755575780   -2.750388211750    2.189779866773
 O    2.887775575780   -4.440668211750    0.912859866773
 C    5.284395575780   -3.491118211750    1.673149866773
 H    6.181655575780   -3.028618211750    2.104899866773
 H    5.346325575780   -3.421168211750    0.572119866773
 H    5.225005575780   -4.548218211750    1.973189866773
 C    2.672555575780   -5.179588211750    2.154239866773
 H    3.022015575780   -6.207898211750    1.981559866773
 H    1.604115575780   -5.191088211750    2.403169866773
 H    3.234135575780   -4.721948211750    2.981999866773
CS   -2.621464424220   -0.277138211750    1.443279866773
CS    2.819735575780    0.077381788250   -1.355960133227
 P   -2.995854759579    3.018319567401   -1.319379910394
 O   -4.369565545390    2.962776591083   -2.282621194199
 O   -3.098586962358    4.653060051990   -1.005703332597
 O   -1.730961608956    2.703091324050   -2.113524114555
 O   -3.316909098036    2.130190897892   -0.106311442807
 C   -5.495203505042    3.703504677029   -1.765983849362
 H   -6.392463180444    3.241011403755   -2.197735464382
 H   -5.557131465094    3.633558929718   -0.664950053198
 H   -5.435815775480    4.760614142086   -2.066028674956
 C   -2.883367461638    5.391974433106   -2.247089035708
 H   -3.232829469027    6.420284986562   -2.074416527349
 H   -1.814923937616    5.403475137791   -2.496023694138
 H   -3.444951399231    4.934333165268   -3.074849841140
