28

 P    2.801350606582   -2.822355504027    1.233720634124
 O    1.536450606582   -2.507135504027    2.027860634124
 O    3.122410606582   -1.934225504027    0.020650634124
 O    4.175060606582   -2.766815504027    2.196960634124
 O    2.904080606582   -4.457095504027    0.920040634124
 C    5.300700606582   -3.507545504027    1.680330634124
 H    6.197960606582   -3.045045504027    2.112080634124
 H    5.362630606582   -3.437595504027    0.579300634124
 H    5.241310606582   -4.564645504027    1.980370634124
 C    2.688860606582   -5.196015504027    2.161420634124
 H    3.038320606582   -6.224325504027    1.988740634124
 H    1.620420606582   -5.207515504027    2.410350634124
 H    3.250440606582   -4.738375504027    2.989180634124
CS   -2.605159393418   -0.293565504027    1.450460634124
CS    2.836040606582    0.060954495973   -1.348779365876
 P   -3.046832127372    3.069679183366   -1.341830442546
 O   -4.420542913183    3.014136207047   -2.305071726352
 O   -3.149564330151    4.704419667954   -1.028153864750
 O   -1.781938976749    2.754450940015   -2.135974646708
 O   -3.367886465829    2.181550513857   -0.128761974959
 C   -5.546180872835    3.754864292994   -1.788434381515
 H   -6.443440548237    3.292371019720   -2.220185996535
 H   -5.608108832887    3.684918545683   -0.687400585351
 H   -5.486793143273    4.811973758051   -2.088479207109
 C   -2.934344829431    5.443334049071   -2.269539567861
 H   -3.283806836820    6.471644602527   -2.096867059502
 H   -1.865901305409    5.454834753756   -2.518474226291
 H   -3.495928767024    4.985692781233   -3.097300373293
