28

 P    2.817655637384   -2.838782796305    1.240901401474
 O    1.552755637384   -2.523562796305    2.035041401474
 O    3.138715637384   -1.950652796305    0.027831401474
 O    4.191365637384   -2.783242796305    2.204141401474
 O    2.920385637384   -4.473522796305    0.927221401474
 C    5.317005637384   -3.523972796305    1.687511401474
 H    6.214265637384   -3.061472796305    2.119261401474
 H    5.378935637384   -3.454022796305    0.586481401474
 H    5.257615637384   -4.581072796305    1.987551401474
 C    2.705165637384   -5.212442796305    2.168601401474
 H    3.054625637384   -6.240752796305    1.995921401474
 H    1.636725637384   -5.223942796305    2.417531401474
 H    3.266745637384   -4.754802796305    2.996361401474
CS   -2.588854362616   -0.309992796305    1.457641401474
CS    2.852345637384    0.044527203695   -1.341598598526
 P   -3.097809495165    3.121038799330   -1.364280974699
 O   -4.471520280976    3.065495823012   -2.327522258505
 O   -3.200541697944    4.755779283919   -1.050604396903
 O   -1.832916344542    2.805810555980   -2.158425178861
 O   -3.418863833622    2.232910129822   -0.151212507112
 C   -5.597158240628    3.806223908959   -1.810884913668
 H   -6.494417916030    3.343730635685   -2.242636528688
 H   -5.659086200680    3.736278161648   -0.709851117504
 H   -5.537770511066    4.863333374016   -2.110929739262
 C   -2.985322197224    5.494693665036   -2.291990100014
 H   -3.334784204613    6.523004218492   -2.119317591655
 H   -1.916878673202    5.506194369721   -2.540924758444
 H   -3.546906134817    5.037052397198   -3.119750905446
