28

 P    2.850265698987   -2.871637380860    1.255262936176
 O    1.585365698987   -2.556417380860    2.049402936176
 O    3.171325698987   -1.983507380860    0.042192936176
 O    4.223975698987   -2.816097380860    2.218502936176
 O    2.952995698987   -4.506377380860    0.941582936176
 C    5.349615698987   -3.556827380860    1.701872936176
 H    6.246875698987   -3.094327380860    2.133622936176
 H    5.411545698987   -3.486877380860    0.600842936176
 H    5.290225698987   -4.613927380860    2.001912936176
 C    2.737775698987   -5.245297380860    2.182962936176
 H    3.087235698987   -6.273607380860    2.010282936176
 H    1.669335698987   -5.256797380860    2.431892936176
 H    3.299355698987   -4.787657380860    3.010722936176
CS   -2.556244301013   -0.342847380860    1.472002936176
CS    2.884955698987    0.011672619140   -1.327237063824
 P   -3.199764230751    3.223758031260   -1.409182039005
 O   -4.573475016562    3.168215054942   -2.372423322811
 O   -3.302496433530    4.858498515849   -1.095505461209
 O   -1.934871080128    2.908529787910   -2.203326243167
 O   -3.520818569208    2.335629361751   -0.196113571418
 C   -5.699112976214    3.908943140889   -1.855785977974
 H   -6.596372651616    3.446449867615   -2.287537592994
 H   -5.761040936266    3.838997393578   -0.754752181809
 H   -5.639725246652    4.966052605945   -2.155830803568
 C   -3.087276932810    5.597412896965   -2.336891164320
 H   -3.436738940199    6.625723450421   -2.164218655961
 H   -2.018833408788    5.608913601650   -2.585825822750
 H   -3.648860870403    5.139771629128   -3.164651969752
