28

 P    3.029621037807   -3.052337595913    1.334251377033
 O    1.764721037807   -2.737117595913    2.128391377033
 O    3.350681037807   -2.164207595913    0.121181377033
 O    4.403331037807   -2.996797595913    2.297491377033
 O    3.132351037807   -4.687077595913    1.020571377033
 C    5.528971037807   -3.737527595913    1.780861377033
 H    6.426231037807   -3.275027595913    2.212611377033
 H    5.590901037807   -3.667577595913    0.679831377033
 H    5.469581037807   -4.794627595913    2.080901377033
 C    2.917131037807   -5.425997595913    2.261951377033
 H    3.266591037807   -6.454307595913    2.089271377033
 H    1.848691037807   -5.437497595913    2.510881377033
 H    3.478711037807   -4.968357595913    3.089711377033
CS   -2.376888962193   -0.523547595913    1.550991377033
CS    3.064311037807   -0.169027595913   -1.248248622967
 P   -3.760515276473    3.788713806874   -1.656137892688
 O   -5.134226062284    3.733170830556   -2.619379176494
 O   -3.863247479253    5.423454291463   -1.342461314891
 O   -2.495622125851    3.473485563523   -2.450282096849
 O   -4.081569614931    2.900585137365   -0.443069425101
 C   -6.259864021936    4.473898916502   -2.102741831657
 H   -7.157123697339    4.011405643228   -2.534493446677
 H   -6.321791981989    4.403953169191   -1.001708035492
 H   -6.200476292374    5.531008381559   -2.402786657250
 C   -3.648027978533    6.162368672579   -2.583847018003
 H   -3.997489985922    7.190679226035   -2.411174509643
 H   -2.579584454511    6.173869377264   -2.832781676432
 H   -4.209611916126    5.704727404741   -3.411607823435
