28

 P    3.127451222617   -3.150901349578    1.377335981137
 O    1.862551222617   -2.835681349578    2.171475981137
 O    3.448511222617   -2.262771349578    0.164265981137
 O    4.501161222617   -3.095361349578    2.340575981137
 O    3.230181222617   -4.785641349578    1.063655981137
 C    5.626801222617   -3.836091349578    1.823945981137
 H    6.524061222617   -3.373591349578    2.255695981137
 H    5.688731222617   -3.766141349578    0.722915981137
 H    5.567411222617   -4.893191349578    2.123985981137
 C    3.014961222617   -5.524561349578    2.305035981137
 H    3.364421222617   -6.552871349578    2.132355981137
 H    1.946521222617   -5.536061349578    2.553965981137
 H    3.576541222617   -5.066921349578    3.132795981137
CS   -2.279058777383   -0.622111349578    1.594075981137
CS    3.162141222617   -0.267591349578   -1.205164018863
 P   -4.066379483231    4.096871502663   -1.790841085606
 O   -5.440090269042    4.041328526345   -2.754082369411
 O   -4.169111686011    5.731611987252   -1.477164507809
 O   -2.801486332609    3.781643259312   -2.584985289767
 O   -4.387433821689    3.208742833154   -0.577772618019
 C   -6.565728228694    4.782056612292   -2.237445024574
 H   -7.462987904097    4.319563339017   -2.669196639594
 H   -6.627656188747    4.712110864980   -1.136411228410
 H   -6.506340499132    5.839166077348   -2.537489850168
 C   -3.953892185291    6.470526368368   -2.718550210920
 H   -4.303354192679    7.498836921824   -2.545877702561
 H   -2.885448661269    6.482027073053   -2.967484869350
 H   -4.515476122884    6.012885100531   -3.546311016352
