28

 P    3.143756253419   -3.167328641855    1.384516748487
 O    1.878856253419   -2.852108641855    2.178656748487
 O    3.464816253419   -2.279198641855    0.171446748487
 O    4.517466253419   -3.111788641855    2.347756748487
 O    3.246486253419   -4.802068641855    1.070836748487
 C    5.643106253419   -3.852518641855    1.831126748487
 H    6.540366253419   -3.390018641855    2.262876748487
 H    5.705036253419   -3.782568641855    0.730096748487
 H    5.583716253419   -4.909618641855    2.131166748487
 C    3.031266253419   -5.540988641855    2.312216748487
 H    3.380726253419   -6.569298641855    2.139536748487
 H    1.962826253419   -5.552488641855    2.561146748487
 H    3.592846253419   -5.083348641855    3.139976748487
CS   -2.262753746581   -0.638538641855    1.601256748487
CS    3.178446253419   -0.284018641855   -1.197983251513
 P   -4.117356851024    4.148231118628   -1.813291617759
 O   -5.491067636835    4.092688142310   -2.776532901564
 O   -4.220089053804    5.782971603217   -1.499615039962
 O   -2.852463700402    3.833002875277   -2.607435821920
 O   -4.438411189482    3.260102449119   -0.600223150172
 C   -6.616705596487    4.833416228256   -2.259895556727
 H   -7.513965271890    4.370922954982   -2.691647171747
 H   -6.678633556540    4.763470480945   -1.158861760563
 H   -6.557317866925    5.890525693313   -2.559940382321
 C   -4.004869553084    6.521885984333   -2.741000743073
 H   -4.354331560472    7.550196537789   -2.568328234714
 H   -2.936426029062    6.533386689018   -2.989935401503
 H   -4.566453490677    6.064244716495   -3.568761548505
