28

 P    3.208976376626   -3.233037810966    1.413239817890
 O    1.944076376626   -2.917817810966    2.207379817890
 O    3.530036376626   -2.344907810966    0.200169817890
 O    4.582686376626   -3.177497810966    2.376479817890
 O    3.311706376626   -4.867777810966    1.099559817890
 C    5.708326376626   -3.918227810966    1.859849817890
 H    6.605586376626   -3.455727810966    2.291599817890
 H    5.770256376626   -3.848277810966    0.758819817890
 H    5.648936376626   -4.975327810966    2.159889817890
 C    3.096486376626   -5.606697810966    2.340939817890
 H    3.445946376626   -6.635007810966    2.168259817890
 H    2.028046376626   -5.618197810966    2.589869817890
 H    3.658066376626   -5.149057810966    3.168699817890
CS   -2.197533623374   -0.704247810966    1.629979817890
CS    3.243666376626   -0.349727810966   -1.169260182110
 P   -4.321266322196    4.353669582487   -1.903093746370
 O   -5.694977108007    4.298126606169   -2.866335030176
 O   -4.423998524975    5.988410067076   -1.589417168574
 O   -3.056373171574    4.038441339137   -2.697237950532
 O   -4.642320660654    3.465540912978   -0.690025278783
 C   -6.820615067659    5.038854692116   -2.349697685339
 H   -7.717874743062    4.576361418842   -2.781449300359
 H   -6.882543027712    4.968908944805   -1.248663889175
 H   -6.761227338097    6.095964157172   -2.649742510933
 C   -4.208779024256    6.727324448192   -2.830802871685
 H   -4.558241031644    7.755635001648   -2.658130363326
 H   -3.140335500234    6.738825152877   -3.079737530115
 H   -4.770362961849    6.269683180355   -3.658563677117
