28

 P    3.225281407428   -3.249465103243    1.420420585241
 O    1.960381407428   -2.934245103243    2.214560585241
 O    3.546341407428   -2.361335103243    0.207350585241
 O    4.598991407428   -3.193925103243    2.383660585241
 O    3.328011407428   -4.884205103243    1.106740585241
 C    5.724631407428   -3.934655103243    1.867030585241
 H    6.621891407428   -3.472155103243    2.298780585241
 H    5.786561407428   -3.864705103243    0.766000585241
 H    5.665241407428   -4.991755103243    2.167070585241
 C    3.112791407428   -5.623125103243    2.348120585241
 H    3.462251407428   -6.651435103243    2.175440585241
 H    2.044351407428   -5.634625103243    2.597050585241
 H    3.674371407428   -5.165485103243    3.175880585241
CS   -2.181228592572   -0.720675103243    1.637160585241
CS    3.259971407428   -0.366155103243   -1.162079414759
 P   -4.372243689989    4.405029198452   -1.925544278523
 O   -5.745954475800    4.349486222134   -2.888785562329
 O   -4.474975892768    6.039769683041   -1.611867700727
 O   -3.107350539367    4.089800955101   -2.719688482685
 O   -4.693298028447    3.516900528943   -0.712475810936
 C   -6.871592435452    5.090214308081   -2.372148217492
 H   -7.768852110855    4.627721034806   -2.803899832512
 H   -6.933520395505    5.020268560770   -1.271114421328
 H   -6.812204705890    6.147323773137   -2.672193043086
 C   -4.259756392049    6.778684064157   -2.853253403838
 H   -4.609218399437    7.806994617613   -2.680580895479
 H   -3.191312868027    6.790184768842   -3.102188062268
 H   -4.821340329642    6.321042796320   -3.681014209270
