28

 P    3.241586438230   -3.265892395521    1.427601352591
 O    1.976686438230   -2.950672395521    2.221741352591
 O    3.562646438230   -2.377762395521    0.214531352591
 O    4.615296438230   -3.210352395521    2.390841352591
 O    3.344316438230   -4.900632395521    1.113921352591
 C    5.740936438230   -3.951082395521    1.874211352591
 H    6.638196438230   -3.488582395521    2.305961352591
 H    5.802866438230   -3.881132395521    0.773181352591
 H    5.681546438230   -5.008182395521    2.174251352591
 C    3.129096438230   -5.639552395521    2.355301352591
 H    3.478556438230   -6.667862395521    2.182621352591
 H    2.060656438230   -5.651052395521    2.604231352591
 H    3.690676438230   -5.181912395521    3.183061352591
CS   -2.164923561770   -0.737102395521    1.644341352591
CS    3.276276438230   -0.382582395521   -1.154898647409
 P   -4.423221057782    4.456388814417   -1.947994810676
 O   -5.796931843593    4.400845838099   -2.911236094482
 O   -4.525953260561    6.091129299006   -1.634318232880
 O   -3.158327907160    4.141160571066   -2.742139014838
 O   -4.744275396240    3.568260144908   -0.734926343089
 C   -6.922569803245    5.141573924046   -2.394598749645
 H   -7.819829478648    4.679080650771   -2.826350364665
 H   -6.984497763298    5.071628176734   -1.293564953480
 H   -6.863182073683    6.198683389102   -2.694643575239
 C   -4.310733759842    6.830043680122   -2.875703935991
 H   -4.660195767230    7.858354233578   -2.703031427632
 H   -3.242290235820    6.841544384807   -3.124638594421
 H   -4.872317697435    6.372402412285   -3.703464741423
