28

 P    3.306806561437   -3.331601564631    1.456324421994
 O    2.041906561437   -3.016381564631    2.250464421994
 O    3.627866561437   -2.443471564631    0.243254421994
 O    4.680516561437   -3.276061564631    2.419564421994
 O    3.409536561437   -4.966341564631    1.142644421994
 C    5.806156561437   -4.016791564631    1.902934421994
 H    6.703416561437   -3.554291564631    2.334684421994
 H    5.868086561437   -3.946841564631    0.801904421994
 H    5.746766561437   -5.073891564631    2.202974421994
 C    3.194316561437   -5.705261564631    2.384024421994
 H    3.543776561437   -6.733571564631    2.211344421994
 H    2.125876561437   -5.716761564631    2.632954421994
 H    3.755896561437   -5.247621564631    3.211784421994
CS   -2.099703438563   -0.802811564631    1.673064421994
CS    3.341496561437   -0.448291564631   -1.126175578006
 P   -4.627130528954    4.661827278276   -2.037796939288
 O   -6.000841314765    4.606284301958   -3.001038223094
 O   -4.729862731733    6.296567762865   -1.724120361492
 O   -3.362237378332    4.346599034926   -2.831941143450
 O   -4.948184867412    3.773698608767   -0.824728471701
 C   -7.126479274417    5.347012387905   -2.484400878257
 H   -8.023738949820    4.884519114631   -2.916152493277
 H   -7.188407234469    5.277066640594   -1.383367082092
 H   -7.067091544855    6.404121852962   -2.784445703850
 C   -4.514643231013    7.035482143982   -2.965506064603
 H   -4.864105238402    8.063792697437   -2.792833556243
 H   -3.446199706992    7.046982848666   -3.214440723032
 H   -5.076227168606    6.577840876144   -3.793266870035
