28

 P    3.388331715446   -3.413738026018    1.492228258747
 O    2.123431715446   -3.098518026018    2.286368258747
 O    3.709391715446   -2.525608026018    0.279158258747
 O    4.762041715446   -3.358198026018    2.455468258747
 O    3.491061715446   -5.048478026018    1.178548258747
 C    5.887681715446   -4.098928026018    1.938838258747
 H    6.784941715446   -3.636428026018    2.370588258747
 H    5.949611715446   -4.028978026018    0.837808258747
 H    5.828291715446   -5.156028026018    2.238878258747
 C    3.275841715446   -5.787398026018    2.419928258747
 H    3.625301715446   -6.815708026018    2.247248258747
 H    2.207401715446   -5.798898026018    2.668858258747
 H    3.837421715446   -5.329758026018    3.247688258747
CS   -2.018178284554   -0.884948026018    1.708968258747
CS    3.423021715446   -0.530428026018   -1.090271741253
 P   -4.882017367919    4.918625358101   -2.150049600053
 O   -6.255728153730    4.863082381783   -3.113290883859
 O   -4.984749570698    6.553365842689   -1.836373022256
 O   -3.617124217297    4.603397114750   -2.944193804214
 O   -5.203071706377    4.030496688592   -0.936981132466
 C   -7.381366113382    5.603810467729   -2.596653539022
 H   -8.278625788784    5.141317194455   -3.028405154042
 H   -7.443294073434    5.533864720418   -1.495619742857
 H   -7.321978383820    6.660919932786   -2.896698364615
 C   -4.769530069978    7.292280223806   -3.077758725368
 H   -5.118992077367    8.320590777262   -2.905086217008
 H   -3.701086545956    7.303780928491   -3.326693383797
 H   -5.331114007571    6.834638955968   -3.905519530800
