28

 P    3.486161900257   -3.512301779684    1.535312862851
 O    2.221261900257   -3.197081779684    2.329452862851
 O    3.807221900257   -2.624171779684    0.322242862851
 O    4.859871900257   -3.456761779684    2.498552862851
 O    3.588891900257   -5.147041779684    1.221632862851
 C    5.985511900257   -4.197491779684    1.981922862851
 H    6.882771900257   -3.734991779684    2.413672862851
 H    6.047441900257   -4.127541779684    0.880892862851
 H    5.926121900257   -5.254591779684    2.281962862851
 C    3.373671900257   -5.885961779684    2.463012862851
 H    3.723131900257   -6.914271779684    2.290332862851
 H    2.305231900257   -5.897461779684    2.711942862851
 H    3.935251900257   -5.428321779684    3.290772862851
CS   -1.920348099743   -0.983511779684    1.752052862851
CS    3.520851900257   -0.628991779684   -1.047187137149
 P   -5.187881574677    5.226783053890   -2.284752792971
 O   -6.561592360488    5.171240077572   -3.247994076777
 O   -5.290613777456    6.861523538479   -1.971076215174
 O   -3.922988424054    4.911554810539   -3.078896997132
 O   -5.508935913134    4.338654384381   -1.071684325384
 C   -7.687230320140    5.911968163519   -2.731356731940
 H   -8.584489995542    5.449474890244   -3.163108346960
 H   -7.749158280192    5.842022416207   -1.630322935775
 H   -7.627842590578    6.969077628575   -3.031401557533
 C   -5.075394276736    7.600437919595   -3.212461918285
 H   -5.424856284125    8.628748473051   -3.039789409926
 H   -4.006950752714    7.611938624280   -3.461396576715
 H   -5.636978214329    7.142796651757   -4.040222723718
