28

 P    3.518771961860   -3.545156364239    1.549674397553
 O    2.253871961860   -3.229936364239    2.343814397553
 O    3.839831961860   -2.657026364239    0.336604397553
 O    4.892481961860   -3.489616364239    2.512914397553
 O    3.621501961860   -5.179896364239    1.235994397553
 C    6.018121961860   -4.230346364239    1.996284397553
 H    6.915381961860   -3.767846364239    2.428034397553
 H    6.080051961860   -4.160396364239    0.895254397553
 H    5.958731961860   -5.287446364239    2.296324397553
 C    3.406281961860   -5.918816364239    2.477374397553
 H    3.755741961860   -6.947126364239    2.304694397553
 H    2.337841961860   -5.930316364239    2.726304397553
 H    3.967861961860   -5.461176364239    3.305134397553
CS   -1.887738038140   -1.016366364239    1.766414397553
CS    3.553461961860   -0.661846364239   -1.032825602447
 P   -5.289836310263    5.329502285819   -2.329653857277
 O   -6.663547096074    5.273959309501   -3.292895141082
 O   -5.392568513042    6.964242770408   -2.015977279480
 O   -4.024943159640    5.014274042469   -3.123798061438
 O   -5.610890648720    4.441373616311   -1.116585389690
 C   -7.789185055726    6.014687395448   -2.776257796245
 H   -8.686444731128    5.552194122174   -3.208009411265
 H   -7.851113015778    5.944741648137   -1.675224000081
 H   -7.729797326164    7.071796860505   -3.076302621839
 C   -5.177349012322    7.703157151525   -3.257362982591
 H   -5.526811019711    8.731467704981   -3.084690474232
 H   -4.108905488300    7.714657856210   -3.506297641021
 H   -5.738932949915    7.245515883687   -4.085123788023
