28

 P    3.567687054266   -3.594438241071    1.571216699605
 O    2.302787054266   -3.279218241071    2.365356699605
 O    3.888747054266   -2.706308241071    0.358146699605
 O    4.941397054266   -3.538898241071    2.534456699605
 O    3.670417054266   -5.229178241071    1.257536699605
 C    6.067037054266   -4.279628241071    2.017826699605
 H    6.964297054266   -3.817128241071    2.449576699605
 H    6.128967054266   -4.209678241071    0.916796699605
 H    6.007647054266   -5.336728241071    2.317866699605
 C    3.455197054266   -5.968098241071    2.498916699605
 H    3.804657054266   -6.996408241071    2.326236699605
 H    2.386757054266   -5.979598241071    2.747846699605
 H    4.016777054266   -5.510458241071    3.326676699605
CS   -1.838822945734   -1.065648241071    1.787956699605
CS    3.602377054266   -0.711128241071   -1.011283300395
 P   -5.442768413641    5.483581133714   -2.397005453736
 O   -6.816479199453    5.428038157396   -3.360246737541
 O   -5.545500616421    7.118321618303   -2.083328875939
 O   -4.177875263019    5.168352890364   -3.191149657897
 O   -5.763822752099    4.595452464205   -1.183936986149
 C   -7.942117159105    6.168766243343   -2.843609392704
 H   -8.839376834507    5.706272970069   -3.275361007724
 H   -8.004045119157    6.098820496032   -1.742575596540
 H   -7.882729429543    7.225875708399   -3.143654218298
 C   -5.330281115701    7.857235999419   -3.324714579050
 H   -5.679743123090    8.885546552875   -3.152042070691
 H   -4.261837591679    7.868736704104   -3.573649237480
 H   -5.891865053294    7.399594731582   -4.152475384482
