28

 P    3.583992085067   -3.610865533349    1.578397466955
 O    2.319092085067   -3.295645533349    2.372537466955
 O    3.905052085067   -2.722735533349    0.365327466955
 O    4.957702085067   -3.555325533349    2.541637466955
 O    3.686722085067   -5.245605533349    1.264717466955
 C    6.083342085067   -4.296055533349    2.025007466955
 H    6.980602085067   -3.833555533349    2.456757466955
 H    6.145272085067   -4.226105533349    0.923977466955
 H    6.023952085067   -5.353155533349    2.325047466955
 C    3.471502085067   -5.984525533349    2.506097466955
 H    3.820962085067   -7.012835533349    2.333417466955
 H    2.403062085067   -5.996025533349    2.755027466955
 H    4.033082085067   -5.526885533349    3.333857466955
CS   -1.822517914933   -1.082075533349    1.795137466955
CS    3.618682085067   -0.727555533349   -1.004102533045
 P   -5.493745781434    5.534940749679   -2.419455985889
 O   -6.867456567246    5.479397773361   -3.382697269694
 O   -5.596477984214    7.169681234268   -2.105779408092
 O   -4.228852630812    5.219712506328   -3.213600190050
 O   -5.814800119892    4.646812080170   -1.206387518302
 C   -7.993094526897    6.220125859308   -2.866059924857
 H   -8.890354202300    5.757632586033   -3.297811539877
 H   -8.055022486950    6.150180111997   -1.765026128693
 H   -7.933706797336    7.277235324364   -3.166104750451
 C   -5.381258483494    7.908595615384   -3.347165111203
 H   -5.730720490883    8.936906168840   -3.174492602844
 H   -4.312814959472    7.920096320069   -3.596099769633
 H   -5.942842421087    7.450954347547   -4.174925916635
