28

 P    3.600297115869   -3.627292825626    1.585578234306
 O    2.335397115869   -3.312072825626    2.379718234306
 O    3.921357115869   -2.739162825626    0.372508234306
 O    4.974007115869   -3.571752825626    2.548818234306
 O    3.703027115869   -5.262032825626    1.271898234306
 C    6.099647115869   -4.312482825626    2.032188234306
 H    6.996907115869   -3.849982825626    2.463938234306
 H    6.161577115869   -4.242532825626    0.931158234306
 H    6.040257115869   -5.369582825626    2.332228234306
 C    3.487807115869   -6.000952825626    2.513278234306
 H    3.837267115869   -7.029262825626    2.340598234306
 H    2.419367115869   -6.012452825626    2.762208234306
 H    4.049387115869   -5.543312825626    3.341038234306
CS   -1.806212884131   -1.098502825626    1.802318234306
CS    3.634987115869   -0.743982825626   -0.996921765694
 P   -5.544723149227    5.586300365644   -2.441906518041
 O   -6.918433935039    5.530757389326   -3.405147801847
 O   -5.647455352007    7.221040850233   -2.128229940245
 O   -4.279829998605    5.271072122293   -3.236050722203
 O   -5.865777487685    4.698171696135   -1.228838050454
 C   -8.044071894690    6.271485475273   -2.888510457010
 H   -8.941331570093    5.808992201998   -3.320262072030
 H   -8.105999854743    6.201539727961   -1.787476660846
 H   -7.984684165129    7.328594940329   -3.188555282604
 C   -5.432235851287    7.959955231349   -3.369615643356
 H   -5.781697858676    8.988265784805   -3.196943134997
 H   -4.363792327265    7.971455936034   -3.618550301786
 H   -5.993819788880    7.502313963512   -4.197376448788
