28

 P    3.616602146671   -3.643720117904    1.592759001657
 O    2.351702146671   -3.328500117904    2.386899001657
 O    3.937662146671   -2.755590117904    0.379689001657
 O    4.990312146671   -3.588180117904    2.555999001657
 O    3.719332146671   -5.278460117904    1.279079001657
 C    6.115952146671   -4.328910117904    2.039369001657
 H    7.013212146671   -3.866410117904    2.471119001657
 H    6.177882146671   -4.258960117904    0.938339001657
 H    6.056562146671   -5.386010117904    2.339409001657
 C    3.504112146671   -6.017380117904    2.520459001657
 H    3.853572146671   -7.045690117904    2.347779001657
 H    2.435672146671   -6.028880117904    2.769389001657
 H    4.065692146671   -5.559740117904    3.348219001657
CS   -1.789907853329   -1.114930117904    1.809499001657
CS    3.651292146671   -0.760410117904   -0.989740998343
 P   -5.595700517020    5.637659981609   -2.464357050194
 O   -6.969411302832    5.582117005291   -3.427598334000
 O   -5.698432719800    7.272400466198   -2.150680472398
 O   -4.330807366398    5.322431738258   -3.258501254356
 O   -5.916754855478    4.749531312100   -1.251288582607
 C   -8.095049262483    6.322845091237   -2.910960989163
 H   -8.992308937886    5.860351817963   -3.342712604183
 H   -8.156977222536    6.252899343926   -1.809927192999
 H   -8.035661532922    7.379954556294   -3.211005814757
 C   -5.483213219080    8.011314847314   -3.392066175509
 H   -5.832675226469    9.039625400770   -3.219393667150
 H   -4.414769695058    8.022815551999   -3.641000833939
 H   -6.044797156673    7.553673579476   -4.219826980941
