8

 C    1.434663885531   -2.111948113915    0.000000000000
 H    2.470163885531   -2.488036113915    0.000000000000
 H    0.901463885531   -2.492651113915    0.888337000000
 H    0.901463885531   -2.492651113915   -0.888337000000
 C    1.392897885531   -0.555864113915    0.000000000000
 O    0.225701885531   -0.049641113915    0.000000000000
 O    2.516968885531    0.039553886085    0.000000000000
RB   -0.966957062799    0.467625386999    0.000000000000
