8

 C    1.759418732706   -2.252797099862    0.000000000000
 H    2.794918732706   -2.628885099862    0.000000000000
 H    1.226218732706   -2.633500099862    0.888337000000
 H    1.226218732706   -2.633500099862   -0.888337000000
 C    1.717652732706   -0.696713099862    0.000000000000
 O    0.550456732706   -0.190490099862    0.000000000000
 O    2.841723732706   -0.101295099862    0.000000000000
RB   -1.192660191776    0.565514786089    0.000000000000
