8

 C    6.143609169573   -4.154258410149    0.000000000000
 H    7.179109169573   -4.530346410149    0.000000000000
 H    5.610409169573   -4.534961410149    0.888337000000
 H    5.610409169573   -4.534961410149   -0.888337000000
 C    6.101843169573   -2.598174410149    0.000000000000
 O    4.934647169573   -2.091951410149    0.000000000000
 O    7.225914169573   -2.002756410149    0.000000000000
RB   -4.239652432968    1.887021673803    0.000000000000
