8

 C    1.867670348431   -2.299746761844    0.000000000000
 H    2.903170348431   -2.675834761844    0.000000000000
 H    1.334470348431   -2.680449761844    0.888337000000
 H    1.334470348431   -2.680449761844   -0.888337000000
 C    1.825904348431   -0.743662761844    0.000000000000
 O    0.658708348431   -0.237439761844    0.000000000000
 O    2.949975348431   -0.148244761844    0.000000000000
RB   -1.267894568102    0.598144585786    0.000000000000
