8

 C    2.030047772019   -2.370171254818    0.000000000000
 H    3.065547772019   -2.746259254818    0.000000000000
 H    1.496847772019   -2.750874254818    0.888337000000
 H    1.496847772019   -2.750874254818   -0.888337000000
 C    1.988281772019   -0.814087254818    0.000000000000
 O    0.821085772019   -0.307864254818    0.000000000000
 O    3.112352772019   -0.218669254818    0.000000000000
RB   -1.380746132591    0.647089285331    0.000000000000
