8

 C    2.354802619194   -2.511020240765    0.000000000000
 H    3.390302619194   -2.887108240765    0.000000000000
 H    1.821602619194   -2.891723240765    0.888337000000
 H    1.821602619194   -2.891723240765   -0.888337000000
 C    2.313036619194   -0.954936240765    0.000000000000
 O    1.145840619194   -0.448713240765    0.000000000000
 O    3.437107619194   -0.359518240765    0.000000000000
RB   -1.606449261568    0.744978684421    0.000000000000
