8

 C    2.463054234919   -2.557969902748    0.000000000000
 H    3.498554234919   -2.934057902748    0.000000000000
 H    1.929854234919   -2.938672902748    0.888337000000
 H    1.929854234919   -2.938672902748   -0.888337000000
 C    2.421288234919   -1.001885902748    0.000000000000
 O    1.254092234919   -0.495662902748    0.000000000000
 O    3.545359234919   -0.406467902748    0.000000000000
RB   -1.681683637894    0.777608484117    0.000000000000
