8

 C    2.625431658507   -2.628394395721    0.000000000000
 H    3.660931658507   -3.004482395721    0.000000000000
 H    2.092231658507   -3.009097395721    0.888337000000
 H    2.092231658507   -3.009097395721   -0.888337000000
 C    2.583665658507   -1.072310395721    0.000000000000
 O    1.416469658507   -0.566087395721    0.000000000000
 O    3.707736658507   -0.476892395721    0.000000000000
RB   -1.794535202382    0.826553183662    0.000000000000
