8

 C    2.733683274232   -2.675344057704    0.000000000000
 H    3.769183274232   -3.051432057704    0.000000000000
 H    2.200483274232   -3.056047057704    0.888337000000
 H    2.200483274232   -3.056047057704   -0.888337000000
 C    2.691917274232   -1.119260057704    0.000000000000
 O    1.524721274232   -0.613037057704    0.000000000000
 O    3.815988274232   -0.523842057704    0.000000000000
RB   -1.869769578708    0.859182983359    0.000000000000
