8

 C    2.787809082095   -2.698818888695    0.000000000000
 H    3.823309082095   -3.074906888695    0.000000000000
 H    2.254609082095   -3.079521888695    0.888337000000
 H    2.254609082095   -3.079521888695   -0.888337000000
 C    2.746043082095   -1.142734888695    0.000000000000
 O    1.578847082095   -0.636511888695    0.000000000000
 O    3.870114082095   -0.547316888695    0.000000000000
RB   -1.907386766871    0.875497883207    0.000000000000
