8

 C    2.841934889957   -2.722293719686    0.000000000000
 H    3.877434889957   -3.098381719686    0.000000000000
 H    2.308734889957   -3.102996719686    0.888337000000
 H    2.308734889957   -3.102996719686   -0.888337000000
 C    2.800168889957   -1.166209719686    0.000000000000
 O    1.632972889957   -0.659986719686    0.000000000000
 O    3.924239889957   -0.570791719686    0.000000000000
RB   -1.945003955034    0.891812783056    0.000000000000
