8

 C    3.166689737133   -2.863142705633    0.000000000000
 H    4.202189737133   -3.239230705633    0.000000000000
 H    2.633489737133   -3.243845705633    0.888337000000
 H    2.633489737133   -3.243845705633   -0.888337000000
 C    3.124923737133   -1.307058705633    0.000000000000
 O    1.957727737133   -0.800835705633    0.000000000000
 O    4.248994737133   -0.711640705633    0.000000000000
RB   -2.170707084011    0.989702182145    0.000000000000
