8

 C    3.383192968583   -2.957042029598    0.000000000000
 H    4.418692968583   -3.333130029598    0.000000000000
 H    2.849992968583   -3.337745029598    0.888337000000
 H    2.849992968583   -3.337745029598   -0.888337000000
 C    3.341426968583   -1.400958029598    0.000000000000
 O    2.174230968583   -0.894735029598    0.000000000000
 O    4.465497968583   -0.805540029598    0.000000000000
RB   -2.321175836662    1.054961781539    0.000000000000
