8

 C    3.653822007896   -3.074416184554    0.000000000000
 H    4.689322007896   -3.450504184554    0.000000000000
 H    3.120622007896   -3.455119184554    0.888337000000
 H    3.120622007896   -3.455119184554   -0.888337000000
 C    3.612056007896   -1.518332184554    0.000000000000
 O    2.444860007896   -1.012109184554    0.000000000000
 O    4.736127007896   -0.922914184554    0.000000000000
RB   -2.509261777476    1.136536280780    0.000000000000
