8

 C    3.707947815758   -3.097891015545    0.000000000000
 H    4.743447815758   -3.473979015545    0.000000000000
 H    3.174747815758   -3.478594015545    0.888337000000
 H    3.174747815758   -3.478594015545   -0.888337000000
 C    3.666181815758   -1.541807015545    0.000000000000
 O    2.498985815758   -1.035584015545    0.000000000000
 O    4.790252815758   -0.946389015545    0.000000000000
RB   -2.546878965639    1.152851180629    0.000000000000
