8

 C    3.870325239346   -3.168315508519    0.000000000000
 H    4.905825239346   -3.544403508519    0.000000000000
 H    3.337125239346   -3.549018508519    0.888337000000
 H    3.337125239346   -3.549018508519   -0.888337000000
 C    3.828559239346   -1.612231508519    0.000000000000
 O    2.661363239346   -1.106008508519    0.000000000000
 O    4.952630239346   -1.016813508519    0.000000000000
RB   -2.659730530128    1.201795880174    0.000000000000
