8

 C    3.924451047208   -3.191790339510    0.000000000000
 H    4.959951047208   -3.567878339510    0.000000000000
 H    3.391251047208   -3.572493339510    0.888337000000
 H    3.391251047208   -3.572493339510   -0.888337000000
 C    3.882685047208   -1.635706339510    0.000000000000
 O    2.715489047208   -1.129483339510    0.000000000000
 O    5.006756047208   -1.040288339510    0.000000000000
RB   -2.697347718291    1.218110780022    0.000000000000
