8

 C    3.978576855071   -3.215265170501    0.000000000000
 H    5.014076855071   -3.591353170501    0.000000000000
 H    3.445376855071   -3.595968170501    0.888337000000
 H    3.445376855071   -3.595968170501   -0.888337000000
 C    3.936810855071   -1.659181170501    0.000000000000
 O    2.769614855071   -1.152958170501    0.000000000000
 O    5.060881855071   -1.063763170501    0.000000000000
RB   -2.734964906454    1.234425679870    0.000000000000
