8

 C    4.357457510109   -3.379588987440    0.000000000000
 H    5.392957510109   -3.755676987440    0.000000000000
 H    3.824257510109   -3.760291987440    0.888337000000
 H    3.824257510109   -3.760291987440   -0.888337000000
 C    4.315691510109   -1.823504987440    0.000000000000
 O    3.148495510109   -1.317281987440    0.000000000000
 O    5.439762510109   -1.228086987440    0.000000000000
RB   -2.998285223594    1.348629978809    0.000000000000
