8

 C    4.465709125834   -3.426538649422    0.000000000000
 H    5.501209125834   -3.802626649422    0.000000000000
 H    3.932509125834   -3.807241649422    0.888337000000
 H    3.932509125834   -3.807241649422   -0.888337000000
 C    4.423943125834   -1.870454649422    0.000000000000
 O    3.256747125834   -1.364231649422    0.000000000000
 O    5.548014125834   -1.275036649422    0.000000000000
RB   -3.073519599919    1.381259778505    0.000000000000
