8

 C    4.736338165147   -3.543912804378    0.000000000000
 H    5.771838165147   -3.920000804378    0.000000000000
 H    4.203138165147   -3.924615804378    0.888337000000
 H    4.203138165147   -3.924615804378   -0.888337000000
 C    4.694572165147   -1.987828804378    0.000000000000
 O    3.527376165147   -1.481605804378    0.000000000000
 O    5.818643165147   -1.392410804378    0.000000000000
RB   -3.261605540734    1.462834277747    0.000000000000
