8

 C    5.006967204459   -3.661286959334    0.000000000000
 H    6.042467204459   -4.037374959334    0.000000000000
 H    4.473767204459   -4.041989959334    0.888337000000
 H    4.473767204459   -4.041989959334   -0.888337000000
 C    4.965201204459   -2.105202959334    0.000000000000
 O    3.798005204459   -1.598979959334    0.000000000000
 O    6.089272204459   -1.509784959334    0.000000000000
RB   -3.449691481548    1.544408776989    0.000000000000
