8

 C    5.061093012322   -3.684761790325    0.000000000000
 H    6.096593012322   -4.060849790325    0.000000000000
 H    4.527893012322   -4.065464790325    0.888337000000
 H    4.527893012322   -4.065464790325   -0.888337000000
 C    5.019327012322   -2.128677790325    0.000000000000
 O    3.852131012322   -1.622454790325    0.000000000000
 O    6.143398012322   -1.533259790325    0.000000000000
RB   -3.487308669711    1.560723676837    0.000000000000
