8

 C    5.115218820185   -3.708236621316    0.000000000000
 H    6.150718820185   -4.084324621316    0.000000000000
 H    4.582018820185   -4.088939621316    0.888337000000
 H    4.582018820185   -4.088939621316   -0.888337000000
 C    5.073452820185   -2.152152621316    0.000000000000
 O    3.906256820185   -1.645929621316    0.000000000000
 O    6.197523820185   -1.556734621316    0.000000000000
RB   -3.524925857874    1.577038576685    0.000000000000
