8

 C    5.331722051635   -3.802135945281    0.000000000000
 H    6.367222051635   -4.178223945281    0.000000000000
 H    4.798522051635   -4.182838945281    0.888337000000
 H    4.798522051635   -4.182838945281   -0.888337000000
 C    5.289956051635   -2.246051945281    0.000000000000
 O    4.122760051635   -1.739828945281    0.000000000000
 O    6.414027051635   -1.650633945281    0.000000000000
RB   -3.675394610525    1.642298176078    0.000000000000
