8

 C    5.439973667360   -3.849085607264    0.000000000000
 H    6.475473667360   -4.225173607264    0.000000000000
 H    4.906773667360   -4.229788607264    0.888337000000
 H    4.906773667360   -4.229788607264   -0.888337000000
 C    5.398207667360   -2.293001607264    0.000000000000
 O    4.231011667360   -1.786778607264    0.000000000000
 O    6.522278667360   -1.697583607264    0.000000000000
RB   -3.750628986851    1.674927975775    0.000000000000
