8

 C    5.494099475222   -3.872560438255    0.000000000000
 H    6.529599475222   -4.248648438255    0.000000000000
 H    4.960899475222   -4.253263438255    0.888337000000
 H    4.960899475222   -4.253263438255   -0.888337000000
 C    5.452333475222   -2.316476438255    0.000000000000
 O    4.285137475222   -1.810253438255    0.000000000000
 O    6.576404475222   -1.721058438255    0.000000000000
RB   -3.788246175014    1.691242875623    0.000000000000
