8

 C    5.548225283085   -3.896035269246    0.000000000000
 H    6.583725283085   -4.272123269246    0.000000000000
 H    5.015025283085   -4.276738269246    0.888337000000
 H    5.015025283085   -4.276738269246   -0.888337000000
 C    5.506459283085   -2.339951269246    0.000000000000
 O    4.339263283085   -1.833728269246    0.000000000000
 O    6.630530283085   -1.744533269246    0.000000000000
RB   -3.825863363176    1.707557775472    0.000000000000
