8

 C    5.656476898810   -3.942984931228    0.000000000000
 H    6.691976898810   -4.319072931228    0.000000000000
 H    5.123276898810   -4.323687931228    0.888337000000
 H    5.123276898810   -4.323687931228   -0.888337000000
 C    5.614710898810   -2.386900931228    0.000000000000
 O    4.447514898810   -1.880677931228    0.000000000000
 O    6.738781898810   -1.791482931228    0.000000000000
RB   -3.901097739502    1.740187575168    0.000000000000
