8

 C    5.764728514535   -3.989934593211    0.000000000000
 H    6.800228514535   -4.366022593211    0.000000000000
 H    5.231528514535   -4.370637593211    0.888337000000
 H    5.231528514535   -4.370637593211   -0.888337000000
 C    5.722962514535   -2.433850593211    0.000000000000
 O    4.555766514535   -1.927627593211    0.000000000000
 O    6.847033514535   -1.838432593211    0.000000000000
RB   -3.976332115828    1.772817374865    0.000000000000
