8

 C    6.035357553848   -4.107308748167    0.000000000000
 H    7.070857553848   -4.483396748167    0.000000000000
 H    5.502157553848   -4.488011748167    0.888337000000
 H    5.502157553848   -4.488011748167   -0.888337000000
 C    5.993591553848   -2.551224748167    0.000000000000
 O    4.826395553848   -2.045001748167    0.000000000000
 O    7.117662553848   -1.955806748167    0.000000000000
RB   -4.164418056642    1.854391874107    0.000000000000
