13

 H    0.403819948443    4.133228655818    0.000000000000
 H    1.947779948443    4.077078655818    0.904130000000
 H    1.947779948443    4.077078655818   -0.904130000000
 C    1.428519948443    3.742128655818    0.000000000000
 S    1.286099948443    1.921358655818    0.000000000000
 H    2.599589948443    1.620258655818    0.000000000000
 K   -0.372150051557   -0.555971344182    0.000000000000
 S   -0.984029902093   -1.470084602213    0.000000000000
 H   -2.297518955829   -1.168979206519    0.000000000000
 C   -1.126453263136   -3.290852806881    0.000000000000
 H   -0.101752586111   -3.681952234782    0.000000000000
 H   -1.645706495212   -3.625805124630   -0.904128828162
 H   -1.645706495212   -3.625805124630    0.904128828162
