13

 H    0.423603602674    4.162784295881    0.000000000000
 H    1.967563602674    4.106634295881    0.904130000000
 H    1.967563602674    4.106634295881   -0.904130000000
 C    1.448303602674    3.771684295881    0.000000000000
 S    1.305883602674    1.950914295881    0.000000000000
 H    2.619373602674    1.649814295881    0.000000000000
 K   -0.352366397326   -0.526415704119    0.000000000000
 S   -1.019871688820   -1.523630167425    0.000000000000
 H   -2.333360742556   -1.222524771731    0.000000000000
 C   -1.162295049864   -3.344398372093    0.000000000000
 H   -0.137594372838   -3.735497799994    0.000000000000
 H   -1.681548281939   -3.679350689842   -0.904128828162
 H   -1.681548281939   -3.679350689842    0.904128828162
