13

 H    0.482954565366    4.251451216071    0.000000000000
 H    2.026914565366    4.195301216071    0.904130000000
 H    2.026914565366    4.195301216071   -0.904130000000
 C    1.507654565366    3.860351216071    0.000000000000
 S    1.365234565366    2.039581216071    0.000000000000
 H    2.678724565366    1.738481216071    0.000000000000
 K   -0.293015434634   -0.437748783929    0.000000000000
 S   -1.127397049002   -1.684266863062    0.000000000000
 H   -2.440886102738   -1.383161467368    0.000000000000
 C   -1.269820410045   -3.505035067729    0.000000000000
 H   -0.245119733020   -3.896134495630    0.000000000000
 H   -1.789073642121   -3.839987385478   -0.904128828162
 H   -1.789073642121   -3.839987385478    0.904128828162
