13

 H    0.542305528058    4.340118136262    0.000000000000
 H    2.086265528058    4.283968136262    0.904130000000
 H    2.086265528058    4.283968136262   -0.904130000000
 C    1.567005528058    3.949018136262    0.000000000000
 S    1.424585528058    2.128248136262    0.000000000000
 H    2.738075528058    1.827148136262    0.000000000000
 K   -0.233664471942   -0.349081863738    0.000000000000
 S   -1.234922409184   -1.844903558698    0.000000000000
 H   -2.548411462920   -1.543798163004    0.000000000000
 C   -1.377345770227   -3.665671763366    0.000000000000
 H   -0.352645093202   -4.056771191266    0.000000000000
 H   -1.896599002303   -4.000624081114   -0.904128828162
 H   -1.896599002303   -4.000624081114    0.904128828162
