13

 H    0.562089182288    4.369673776325    0.000000000000
 H    2.106049182288    4.313523776325    0.904130000000
 H    2.106049182288    4.313523776325   -0.904130000000
 C    1.586789182288    3.978573776325    0.000000000000
 S    1.444369182288    2.157803776325    0.000000000000
 H    2.757859182288    1.856703776325    0.000000000000
 K   -0.213880817712   -0.319526223675    0.000000000000
 S   -1.270764195911   -1.898449123910    0.000000000000
 H   -2.584253249647   -1.597343728216    0.000000000000
 C   -1.413187556954   -3.719217328578    0.000000000000
 H   -0.388486879929   -4.110316756478    0.000000000000
 H   -1.932440789030   -4.054169646326   -0.904128828162
 H   -1.932440789030   -4.054169646326    0.904128828162
