13

 H    0.621440144980    4.458340696515    0.000000000000
 H    2.165400144980    4.402190696515    0.904130000000
 H    2.165400144980    4.402190696515   -0.904130000000
 C    1.646140144980    4.067240696515    0.000000000000
 S    1.503720144980    2.246470696515    0.000000000000
 H    2.817210144980    1.945370696515    0.000000000000
 K   -0.154529855020   -0.230859303485    0.000000000000
 S   -1.378289556093   -2.059085819546    0.000000000000
 H   -2.691778609829   -1.757980423852    0.000000000000
 C   -1.520712917136   -3.879854024214    0.000000000000
 H   -0.496012240111   -4.270953452114    0.000000000000
 H   -2.039966149211   -4.214806341963   -0.904128828162
 H   -2.039966149211   -4.214806341963    0.904128828162
