13

 H    0.661007453442    4.517451976642    0.000000000000
 H    2.204967453442    4.461301976642    0.904130000000
 H    2.204967453442    4.461301976642   -0.904130000000
 C    1.685707453442    4.126351976642    0.000000000000
 S    1.543287453442    2.305581976642    0.000000000000
 H    2.856777453442    2.004481976642    0.000000000000
 K   -0.114962546558   -0.171748023358    0.000000000000
 S   -1.449973129547   -2.166176949970    0.000000000000
 H   -2.763462183283   -1.865071554276    0.000000000000
 C   -1.592396490590   -3.986945154638    0.000000000000
 H   -0.567695813565   -4.378044582539    0.000000000000
 H   -2.111649722666   -4.321897472387   -0.904128828162
 H   -2.111649722666   -4.321897472387    0.904128828162
