13

 H    0.720358416133    4.606118896833    0.000000000000
 H    2.264318416133    4.549968896833    0.904130000000
 H    2.264318416133    4.549968896833   -0.904130000000
 C    1.745058416133    4.215018896833    0.000000000000
 S    1.602638416133    2.394248896833    0.000000000000
 H    2.916128416133    2.093148896833    0.000000000000
 K   -0.055611583867   -0.083081103167    0.000000000000
 S   -1.557498489729   -2.326813645606    0.000000000000
 H   -2.870987543465   -2.025708249913    0.000000000000
 C   -1.699921850772   -4.147581850274    0.000000000000
 H   -0.675221173747   -4.538681278175    0.000000000000
 H   -2.219175082847   -4.482534168023   -0.904128828162
 H   -2.219175082847   -4.482534168023    0.904128828162
