13

 H    0.898411304209    4.872119657403    0.000000000000
 H    2.442371304209    4.815969657403    0.904130000000
 H    2.442371304209    4.815969657403   -0.904130000000
 C    1.923111304209    4.481019657403    0.000000000000
 S    1.780691304209    2.660249657403    0.000000000000
 H    3.094181304209    2.359149657403    0.000000000000
 K    0.122441304209    0.182919657403    0.000000000000
 S   -1.880074570274   -2.808723732515    0.000000000000
 H   -3.193563624010   -2.507618336821    0.000000000000
 C   -2.022497931317   -4.629491937183    0.000000000000
 H   -0.997797254292   -5.020591365084    0.000000000000
 H   -2.541751163392   -4.964444254932   -0.904128828162
 H   -2.541751163392   -4.964444254932    0.904128828162
