13

 H    0.937978612670    4.931230937530    0.000000000000
 H    2.481938612670    4.875080937530    0.904130000000
 H    2.481938612670    4.875080937530   -0.904130000000
 C    1.962678612670    4.540130937530    0.000000000000
 S    1.820258612670    2.719360937530    0.000000000000
 H    3.133748612670    2.418260937530    0.000000000000
 K    0.162008612670    0.242030937530    0.000000000000
 S   -1.951758143728   -2.915814862939    0.000000000000
 H   -3.265247197464   -2.614709467246    0.000000000000
 C   -2.094181504771   -4.736583067607    0.000000000000
 H   -1.069480827746   -5.127682495508    0.000000000000
 H   -2.613434736847   -5.071535385356   -0.904128828162
 H   -2.613434736847   -5.071535385356    0.904128828162
