13

 H    0.957762266901    4.960786577594    0.000000000000
 H    2.501722266901    4.904636577594    0.904130000000
 H    2.501722266901    4.904636577594   -0.904130000000
 C    1.982462266901    4.569686577594    0.000000000000
 S    1.840042266901    2.748916577594    0.000000000000
 H    3.153532266901    2.447816577594    0.000000000000
 K    0.181792266901    0.271586577594    0.000000000000
 S   -1.987599930455   -2.969360428151    0.000000000000
 H   -3.301088984191   -2.668255032458    0.000000000000
 C   -2.130023291498   -4.790128632819    0.000000000000
 H   -1.105322614473   -5.181228060720    0.000000000000
 H   -2.649276523574   -5.125080950568   -0.904128828162
 H   -2.649276523574   -5.125080950568    0.904128828162
