13

 H    0.997329575362    5.019897857721    0.000000000000
 H    2.541289575362    4.963747857721    0.904130000000
 H    2.541289575362    4.963747857721   -0.904130000000
 C    2.022029575362    4.628797857721    0.000000000000
 S    1.879609575362    2.808027857721    0.000000000000
 H    3.193099575362    2.506927857721    0.000000000000
 K    0.221359575362    0.330697857721    0.000000000000
 S   -2.059283503910   -3.076451558576    0.000000000000
 H   -3.372772557646   -2.775346162882    0.000000000000
 C   -2.201706864953   -4.897219763243    0.000000000000
 H   -1.177006187928   -5.288319191144    0.000000000000
 H   -2.720960097029   -5.232172080992   -0.904128828162
 H   -2.720960097029   -5.232172080992    0.904128828162
