13

 H    1.076464192285    5.138120417974    0.000000000000
 H    2.620424192285    5.081970417974    0.904130000000
 H    2.620424192285    5.081970417974   -0.904130000000
 C    2.101164192285    4.747020417974    0.000000000000
 S    1.958744192285    2.926250417974    0.000000000000
 H    3.272234192285    2.625150417974    0.000000000000
 K    0.300494192285    0.448920417974    0.000000000000
 S   -2.202650650819   -3.290633819424    0.000000000000
 H   -3.516139704555   -2.989528423730    0.000000000000
 C   -2.345074011862   -5.111402024092    0.000000000000
 H   -1.320373334837   -5.502501451992    0.000000000000
 H   -2.864327243937   -5.446354341841   -0.904128828162
 H   -2.864327243937   -5.446354341841    0.904128828162
