13

 H    1.116031500746    5.197231698101    0.000000000000
 H    2.659991500746    5.141081698101    0.904130000000
 H    2.659991500746    5.141081698101   -0.904130000000
 C    2.140731500746    4.806131698101    0.000000000000
 S    1.998311500746    2.985361698101    0.000000000000
 H    3.311801500746    2.684261698101    0.000000000000
 K    0.340061500746    0.508031698101    0.000000000000
 S   -2.274334224273   -3.397724949848    0.000000000000
 H   -3.587823278009   -3.096619554154    0.000000000000
 C   -2.416757585316   -5.218493154516    0.000000000000
 H   -1.392056908291   -5.609592582417    0.000000000000
 H   -2.936010817392   -5.553445472265   -0.904128828162
 H   -2.936010817392   -5.553445472265    0.904128828162
