13

 H    1.135815154977    5.226787338165    0.000000000000
 H    2.679775154977    5.170637338165    0.904130000000
 H    2.679775154977    5.170637338165   -0.904130000000
 C    2.160515154977    4.835687338165    0.000000000000
 S    2.018095154977    3.014917338165    0.000000000000
 H    3.331585154977    2.713817338165    0.000000000000
 K    0.359845154977    0.537587338165    0.000000000000
 S   -2.310176011000   -3.451270515060    0.000000000000
 H   -3.623665064736   -3.150165119366    0.000000000000
 C   -2.452599372043   -5.272038719728    0.000000000000
 H   -1.427898695018   -5.663138147629    0.000000000000
 H   -2.971852604119   -5.606991037477   -0.904128828162
 H   -2.971852604119   -5.606991037477    0.904128828162
