13

 H    1.214949771899    5.345009898418    0.000000000000
 H    2.758909771899    5.288859898418    0.904130000000
 H    2.758909771899    5.288859898418   -0.904130000000
 C    2.239649771899    4.953909898418    0.000000000000
 S    2.097229771899    3.133139898418    0.000000000000
 H    3.410719771899    2.832039898418    0.000000000000
 K    0.438979771899    0.655809898418    0.000000000000
 S   -2.453543157909   -3.665452775909    0.000000000000
 H   -3.767032211645   -3.364347380215    0.000000000000
 C   -2.595966518952   -5.486220980576    0.000000000000
 H   -1.571265841927   -5.877320408477    0.000000000000
 H   -3.115219751028   -5.821173298325   -0.904128828162
 H   -3.115219751028   -5.821173298325    0.904128828162
