13

 H    1.234733426130    5.374565538482    0.000000000000
 H    2.778693426130    5.318415538482    0.904130000000
 H    2.778693426130    5.318415538482   -0.904130000000
 C    2.259433426130    4.983465538482    0.000000000000
 S    2.117013426130    3.162695538482    0.000000000000
 H    3.430503426130    2.861595538482    0.000000000000
 K    0.458763426130    0.685365538482    0.000000000000
 S   -2.489384944636   -3.718998341121    0.000000000000
 H   -3.802873998372   -3.417892945427    0.000000000000
 C   -2.631808305679   -5.539766545788    0.000000000000
 H   -1.607107628654   -5.930865973689    0.000000000000
 H   -3.151061537755   -5.874718863537   -0.904128828162
 H   -3.151061537755   -5.874718863537    0.904128828162
