13

 H    1.333651697283    5.522343738799    0.000000000000
 H    2.877611697283    5.466193738799    0.904130000000
 H    2.877611697283    5.466193738799   -0.904130000000
 C    2.358351697283    5.131243738799    0.000000000000
 S    2.215931697283    3.310473738799    0.000000000000
 H    3.529421697283    3.009373738799    0.000000000000
 K    0.557681697283    0.833143738799    0.000000000000
 S   -2.668593878272   -3.986726167181    0.000000000000
 H   -3.982082932008   -3.685620771487    0.000000000000
 C   -2.811017239316   -5.807494371849    0.000000000000
 H   -1.786316562290   -6.198593799749    0.000000000000
 H   -3.330270471391   -6.142446689598   -0.904128828162
 H   -3.330270471391   -6.142446689598    0.904128828162
