13

 H    1.511704585359    5.788344499370    0.000000000000
 H    3.055664585359    5.732194499370    0.904130000000
 H    3.055664585359    5.732194499370   -0.904130000000
 C    2.536404585359    5.397244499370    0.000000000000
 S    2.393984585359    3.576474499370    0.000000000000
 H    3.707474585359    3.275374499370    0.000000000000
 K    0.735734585359    1.099144499370    0.000000000000
 S   -2.991169958817   -4.468636254090    0.000000000000
 H   -4.304659012553   -4.167530858396    0.000000000000
 C   -3.133593319861   -6.289404458758    0.000000000000
 H   -2.108892642835   -6.680503886658    0.000000000000
 H   -3.652846551936   -6.624356776506   -0.904128828162
 H   -3.652846551936   -6.624356776506    0.904128828162
