13

 H    1.531488239590    5.817900139433    0.000000000000
 H    3.075448239590    5.761750139433    0.904130000000
 H    3.075448239590    5.761750139433   -0.904130000000
 C    2.556188239590    5.426800139433    0.000000000000
 S    2.413768239590    3.606030139433    0.000000000000
 H    3.727258239590    3.304930139433    0.000000000000
 K    0.755518239590    1.128700139433    0.000000000000
 S   -3.027011745545   -4.522181819302    0.000000000000
 H   -4.340500799281   -4.221076423608    0.000000000000
 C   -3.169435106588   -6.342950023970    0.000000000000
 H   -2.144734429563   -6.734049451870    0.000000000000
 H   -3.688688338663   -6.677902341718   -0.904128828162
 H   -3.688688338663   -6.677902341718    0.904128828162
