13

 H    1.551271893820    5.847455779497    0.000000000000
 H    3.095231893820    5.791305779497    0.904130000000
 H    3.095231893820    5.791305779497   -0.904130000000
 C    2.575971893820    5.456355779497    0.000000000000
 S    2.433551893820    3.635585779497    0.000000000000
 H    3.747041893820    3.334485779497    0.000000000000
 K    0.775301893820    1.158255779497    0.000000000000
 S   -3.062853532272   -4.575727384514    0.000000000000
 H   -4.376342586008   -4.274621988820    0.000000000000
 C   -3.205276893315   -6.396495589182    0.000000000000
 H   -2.180576216290   -6.787595017082    0.000000000000
 H   -3.724530125391   -6.731447906930   -0.904128828162
 H   -3.724530125391   -6.731447906930    0.904128828162
