13

 H    1.590839202282    5.906567059624    0.000000000000
 H    3.134799202282    5.850417059624    0.904130000000
 H    3.134799202282    5.850417059624   -0.904130000000
 C    2.615539202282    5.515467059624    0.000000000000
 S    2.473119202282    3.694697059624    0.000000000000
 H    3.786609202282    3.393597059624    0.000000000000
 K    0.814869202282    1.217367059624    0.000000000000
 S   -3.134537105726   -4.682818514938    0.000000000000
 H   -4.448026159462   -4.381713119244    0.000000000000
 C   -3.276960466769   -6.503586719606    0.000000000000
 H   -2.252259789744   -6.894686147507    0.000000000000
 H   -3.796213698845   -6.838539037355   -0.904128828162
 H   -3.796213698845   -6.838539037355    0.904128828162
