13

 H    1.630406510743    5.965678339751    0.000000000000
 H    3.174366510743    5.909528339751    0.904130000000
 H    3.174366510743    5.909528339751   -0.904130000000
 C    2.655106510743    5.574578339751    0.000000000000
 S    2.512686510743    3.753808339751    0.000000000000
 H    3.826176510743    3.452708339751    0.000000000000
 K    0.854436510743    1.276478339751    0.000000000000
 S   -3.206220679181   -4.789909645362    0.000000000000
 H   -4.519709732917   -4.488804249669    0.000000000000
 C   -3.348644040224   -6.610677850030    0.000000000000
 H   -2.323943363199   -7.001777277931    0.000000000000
 H   -3.867897272299   -6.945630167779   -0.904128828162
 H   -3.867897272299   -6.945630167779    0.904128828162
