13

 H    1.650190164974    5.995233979814    0.000000000000
 H    3.194150164974    5.939083979814    0.904130000000
 H    3.194150164974    5.939083979814   -0.904130000000
 C    2.674890164974    5.604133979814    0.000000000000
 S    2.532470164974    3.783363979814    0.000000000000
 H    3.845960164974    3.482263979814    0.000000000000
 K    0.874220164974    1.306033979814    0.000000000000
 S   -3.242062465908   -4.843455210574    0.000000000000
 H   -4.555551519644   -4.542349814881    0.000000000000
 C   -3.384485826951   -6.664223415242    0.000000000000
 H   -2.359785149926   -7.055322843143    0.000000000000
 H   -3.903739059027   -6.999175732991   -0.904128828162
 H   -3.903739059027   -6.999175732991    0.904128828162
