13

 H    1.669973819204    6.024789619877    0.000000000000
 H    3.213933819204    5.968639619877    0.904130000000
 H    3.213933819204    5.968639619877   -0.904130000000
 C    2.694673819204    5.633689619877    0.000000000000
 S    2.552253819204    3.812919619877    0.000000000000
 H    3.865743819204    3.511819619877    0.000000000000
 K    0.894003819204    1.335589619877    0.000000000000
 S   -3.277904252635   -4.897000775786    0.000000000000
 H   -4.591393306371   -4.595895380093    0.000000000000
 C   -3.420327613678   -6.717768980454    0.000000000000
 H   -2.395626936653   -7.108868408355    0.000000000000
 H   -3.939580845754   -7.052721298203   -0.904128828162
 H   -3.939580845754   -7.052721298203    0.904128828162
