13

 H    1.749108436127    6.143012180131    0.000000000000
 H    3.293068436127    6.086862180131    0.904130000000
 H    3.293068436127    6.086862180131   -0.904130000000
 C    2.773808436127    5.751912180131    0.000000000000
 S    2.631388436127    3.931142180131    0.000000000000
 H    3.944878436127    3.630042180131    0.000000000000
 K    0.973138436127    1.453812180131    0.000000000000
 S   -3.421271399544   -5.111183036635    0.000000000000
 H   -4.734760453280   -4.810077640941    0.000000000000
 C   -3.563694760587   -6.931951241303    0.000000000000
 H   -2.538994083562   -7.323050669203    0.000000000000
 H   -4.082947992663   -7.266903559051   -0.904128828162
 H   -4.082947992663   -7.266903559051    0.904128828162
