13

 H    1.768892090357    6.172567820195    0.000000000000
 H    3.312852090357    6.116417820195    0.904130000000
 H    3.312852090357    6.116417820195   -0.904130000000
 C    2.793592090357    5.781467820195    0.000000000000
 S    2.651172090357    3.960697820195    0.000000000000
 H    3.964662090357    3.659597820195    0.000000000000
 K    0.992922090357    1.483367820195    0.000000000000
 S   -3.457113186271   -5.164728601847    0.000000000000
 H   -4.770602240007   -4.863623206153    0.000000000000
 C   -3.599536547314   -6.985496806515    0.000000000000
 H   -2.574835870289   -7.376596234415    0.000000000000
 H   -4.118789779390   -7.320449124263   -0.904128828162
 H   -4.118789779390   -7.320449124263    0.904128828162
