13

 H    1.848026707280    6.290790380448    0.000000000000
 H    3.391986707280    6.234640380448    0.904130000000
 H    3.391986707280    6.234640380448   -0.904130000000
 C    2.872726707280    5.899690380448    0.000000000000
 S    2.730306707280    4.078920380448    0.000000000000
 H    4.043796707280    3.777820380448    0.000000000000
 K    1.072056707280    1.601590380448    0.000000000000
 S   -3.600480333180   -5.378910862695    0.000000000000
 H   -4.913969386916   -5.077805467001    0.000000000000
 C   -3.742903694223   -7.199679067363    0.000000000000
 H   -2.718203017198   -7.590778495264    0.000000000000
 H   -4.262156926299   -7.534631385112   -0.904128828162
 H   -4.262156926299   -7.534631385112    0.904128828162
