13

 H    1.867810361511    6.320346020512    0.000000000000
 H    3.411770361511    6.264196020512    0.904130000000
 H    3.411770361511    6.264196020512   -0.904130000000
 C    2.892510361511    5.929246020512    0.000000000000
 S    2.750090361511    4.108476020512    0.000000000000
 H    4.063580361511    3.807376020512    0.000000000000
 K    1.091840361511    1.631146020512    0.000000000000
 S   -3.636322119907   -5.432456427907    0.000000000000
 H   -4.949811173643   -5.131351032214    0.000000000000
 C   -3.778745480950   -7.253224632575    0.000000000000
 H   -2.754044803925   -7.644324060476    0.000000000000
 H   -4.297998713026   -7.588176950324   -0.904128828162
 H   -4.297998713026   -7.588176950324    0.904128828162
