13

 H    1.946944978433    6.438568580766    0.000000000000
 H    3.490904978433    6.382418580766    0.904130000000
 H    3.490904978433    6.382418580766   -0.904130000000
 C    2.971644978433    6.047468580766    0.000000000000
 S    2.829224978433    4.226698580766    0.000000000000
 H    4.142714978433    3.925598580766    0.000000000000
 K    1.170974978433    1.749368580766    0.000000000000
 S   -3.779689266816   -5.646638688756    0.000000000000
 H   -5.093178320552   -5.345533293062    0.000000000000
 C   -3.922112627859   -7.467406893423    0.000000000000
 H   -2.897411950834   -7.858506321324    0.000000000000
 H   -4.441365859935   -7.802359211172   -0.904128828162
 H   -4.441365859935   -7.802359211172    0.904128828162
