13

 H    2.006295941125    6.527235500956    0.000000000000
 H    3.550255941125    6.471085500956    0.904130000000
 H    3.550255941125    6.471085500956   -0.904130000000
 C    3.030995941125    6.136135500956    0.000000000000
 S    2.888575941125    4.315365500956    0.000000000000
 H    4.202065941125    4.014265500956    0.000000000000
 K    1.230325941125    1.838035500956    0.000000000000
 S   -3.887214626998   -5.807275384392    0.000000000000
 H   -5.200703680734   -5.506169988698    0.000000000000
 C   -4.029637988041   -7.628043589060    0.000000000000
 H   -3.004937311016   -8.019143016960    0.000000000000
 H   -4.548891220117   -7.962995906808   -0.904128828162
 H   -4.548891220117   -7.962995906808    0.904128828162
