13

 H    2.085430558048    6.645458061210    0.000000000000
 H    3.629390558048    6.589308061210    0.904130000000
 H    3.629390558048    6.589308061210   -0.904130000000
 C    3.110130558048    6.254358061210    0.000000000000
 S    2.967710558048    4.433588061210    0.000000000000
 H    4.281200558048    4.132488061210    0.000000000000
 K    1.309460558048    1.956258061210    0.000000000000
 S   -4.030581773907   -6.021457645240    0.000000000000
 H   -5.344070827643   -5.720352249546    0.000000000000
 C   -4.173005134950   -7.842225849908    0.000000000000
 H   -3.148304457925   -8.233325277809    0.000000000000
 H   -4.692258367025   -8.177178167657   -0.904128828162
 H   -4.692258367025   -8.177178167657    0.904128828162
