13

 H    2.105214212278    6.675013701273    0.000000000000
 H    3.649174212278    6.618863701273    0.904130000000
 H    3.649174212278    6.618863701273   -0.904130000000
 C    3.129914212278    6.283913701273    0.000000000000
 S    2.987494212278    4.463143701273    0.000000000000
 H    4.300984212278    4.162043701273    0.000000000000
 K    1.329244212278    1.985813701273    0.000000000000
 S   -4.066423560634   -6.075003210452    0.000000000000
 H   -5.379912614370   -5.773897814759    0.000000000000
 C   -4.208846921677   -7.895771415120    0.000000000000
 H   -3.184146244652   -8.286870843021    0.000000000000
 H   -4.728100153753   -8.230723732869   -0.904128828162
 H   -4.728100153753   -8.230723732869    0.904128828162
