13

 H    2.124997866509    6.704569341336    0.000000000000
 H    3.668957866509    6.648419341336    0.904130000000
 H    3.668957866509    6.648419341336   -0.904130000000
 C    3.149697866509    6.313469341336    0.000000000000
 S    3.007277866509    4.492699341336    0.000000000000
 H    4.320767866509    4.191599341336    0.000000000000
 K    1.349027866509    2.015369341336    0.000000000000
 S   -4.102265347361   -6.128548775664    0.000000000000
 H   -5.415754401097   -5.827443379971    0.000000000000
 C   -4.244688708404   -7.949316980332    0.000000000000
 H   -3.219988031379   -8.340416408233    0.000000000000
 H   -4.763941940480   -8.284269298081   -0.904128828162
 H   -4.763941940480   -8.284269298081    0.904128828162
