13

 H    2.144781520740    6.734124981400    0.000000000000
 H    3.688741520740    6.677974981400    0.904130000000
 H    3.688741520740    6.677974981400   -0.904130000000
 C    3.169481520740    6.343024981400    0.000000000000
 S    3.027061520740    4.522254981400    0.000000000000
 H    4.340551520740    4.221154981400    0.000000000000
 K    1.368811520740    2.044924981400    0.000000000000
 S   -4.138107134088   -6.182094340876    0.000000000000
 H   -5.451596187824   -5.880988945183    0.000000000000
 C   -4.280530495131   -8.002862545544    0.000000000000
 H   -3.255829818106   -8.393961973445    0.000000000000
 H   -4.799783727207   -8.337814863293   -0.904128828162
 H   -4.799783727207   -8.337814863293    0.904128828162
