27

 N    0.919294035692    3.549758264939   -0.039306107830
 C    0.083544035692    4.626668264939    0.036233892170
 H    0.547444035692    5.612828264939    0.009243892170
 C    0.459104035692    2.235788264939   -0.014906107830
 O    1.272134035692    1.290498264939   -0.087216107830
 N   -0.894555964308    2.024918264939    0.088883892170
 C   -1.726465964308    3.072118264939    0.164403892170
 N   -3.046755964308    2.810248264939    0.266453892170
 H   -3.364875964308    1.849808264939    0.281773892170
 H   -3.727715964308    3.553818264939    0.326063892170
 C   -1.267305964308    4.434358264939    0.140843892170
 H   -1.951465964308    5.278828264939    0.202913892170
 H    1.925154035692    3.668838264939   -0.116836107830
NA   -0.356805964308   -0.361961735061    0.024463892170
 O   -1.198256426543   -1.215561763806    0.082153670567
 C   -0.385230289435   -2.160845310168    0.009844032497
 N   -0.845423919648   -3.474814758104    0.034242110364
 H   -1.851287318024   -3.593890097937    0.111773457260
 C   -0.009682170363   -4.551725915142   -0.041293648364
 H   -0.473584074483   -5.537888049062   -0.014310420671
 C    1.341174416340   -4.359424263262   -0.145907544411
 H    2.025332281616   -5.203891936769   -0.207974635379
 C    1.800340355196   -2.997180673181   -0.169473398483
 N    0.968424932192   -1.949977604404   -0.093952174234
 N    3.120629189720   -2.735317579771   -0.271523046403
 H    3.438752227965   -1.774867578857   -0.286841750014
 H    3.801582366238   -3.478883654646   -0.331127275162
