27

 N    0.982837108253    3.614218825600   -0.043662615954
 C    0.147087108253    4.691128825600    0.031877384046
 H    0.610987108253    5.677288825600    0.004887384046
 C    0.522647108253    2.300248825600   -0.019262615954
 O    1.335677108253    1.354958825600   -0.091572615954
 N   -0.831012891747    2.089378825600    0.084527384046
 C   -1.662922891747    3.136578825600    0.160047384046
 N   -2.983212891747    2.874708825600    0.262097384046
 H   -3.301332891747    1.914268825600    0.277417384046
 H   -3.664172891747    3.618278825600    0.321707384046
 C   -1.203762891747    4.498818825600    0.136487384046
 H   -1.887922891747    5.343288825600    0.198557384046
 H    1.988697108253    3.733298825600   -0.121192615954
NA   -0.293262891747   -0.297501174400    0.020107384046
 O   -1.274955097688   -1.293367874603    0.087412125509
 C   -0.461928960580   -2.238651420964    0.015102487440
 N   -0.922122590793   -3.552620868900    0.039500565306
 H   -1.927985989169   -3.671696208733    0.117031912202
 C   -0.086380841508   -4.629532025938   -0.036035193422
 H   -0.550282745628   -5.615694159858   -0.009051965729
 C    1.264475745195   -4.437230374058   -0.140649089469
 H    1.948633610471   -5.281698047565   -0.202716180437
 C    1.723641684051   -3.074986783977   -0.164214943541
 N    0.891726261047   -2.027783715200   -0.088693719292
 N    3.043930518575   -2.813123690568   -0.266264591461
 H    3.362053556820   -1.852673689653   -0.281583295072
 H    3.724883695093   -3.556689765442   -0.325868820220
