27

 N    1.014608644533    3.646449105931   -0.045840870016
 C    0.178858644533    4.723359105931    0.029699129984
 H    0.642758644533    5.709519105931    0.002709129984
 C    0.554418644533    2.332479105931   -0.021440870016
 O    1.367448644533    1.387189105931   -0.093750870016
 N   -0.799241355467    2.121609105931    0.082349129984
 C   -1.631151355467    3.168809105931    0.157869129984
 N   -2.951441355467    2.906939105931    0.259919129984
 H   -3.269561355467    1.946499105931    0.275239129984
 H   -3.632401355467    3.650509105931    0.319529129984
 C   -1.171991355467    4.531049105931    0.134309129984
 H   -1.856151355467    5.375519105931    0.196379129984
 H    2.020468644533    3.765529105931   -0.123370870016
NA   -0.261491355467   -0.265270894069    0.017929129984
 O   -1.313304433260   -1.332270930001    0.090041352981
 C   -0.500278296153   -2.277554476362    0.017731714911
 N   -0.960471926366   -3.591523924298    0.042129792777
 H   -1.966335324741   -3.710599264131    0.119661139674
 C   -0.124730177080   -4.668435081336   -0.033405965951
 H   -0.588632081201   -5.654597215256   -0.006422738258
 C    1.226126409622   -4.476133429456   -0.138019861998
 H    1.910284274899   -5.320601102963   -0.200086952966
 C    1.685292348478   -3.113889839375   -0.161585716070
 N    0.853376925474   -2.066686770598   -0.086064491821
 N    3.005581183002   -2.852026745966   -0.263635363990
 H    3.323704221248   -1.891576745051   -0.278954067601
 H    3.686534359520   -3.595592820840   -0.323239592749
