27

 N    1.109923253374    3.743139946923   -0.052375632202
 C    0.274173253374    4.820049946923    0.023164367798
 H    0.738073253374    5.806209946923   -0.003825632202
 C    0.649733253374    2.429169946923   -0.027975632202
 O    1.462763253374    1.483879946923   -0.100285632202
 N   -0.703926746626    2.218299946923    0.075814367798
 C   -1.535836746626    3.265499946923    0.151334367798
 N   -2.856126746626    3.003629946923    0.253384367798
 H   -3.174246746626    2.043189946923    0.268704367798
 H   -3.537086746626    3.747199946923    0.312994367798
 C   -1.076676746626    4.627739946923    0.127774367798
 H   -1.760836746626    5.472209946923    0.189844367798
 H    2.115783253374    3.862219946923   -0.129905632202
NA   -0.166176746626   -0.168580053077    0.011394367798
 O   -1.428352439978   -1.448980096195    0.097929035394
 C   -0.615326302870   -2.394263642556    0.025619397324
 N   -1.075519933083   -3.708233090492    0.050017475191
 H   -2.081383331459   -3.827308430326    0.127548822087
 C   -0.239778183798   -4.785144247531   -0.025518283537
 H   -0.703680087918   -5.771306381450    0.001464944155
 C    1.111078402905   -4.592842595650   -0.130132179585
 H    1.795236268181   -5.437310269158   -0.192199270553
 C    1.570244341761   -3.230599005569   -0.153698033657
 N    0.738328918757   -2.183395936792   -0.078176809407
 N    2.890533176285   -2.968735912160   -0.255747681577
 H    3.208656214530   -2.008285911245   -0.271066385187
 H    3.571486352803   -3.712301987034   -0.315351910335
