27

 N    1.237009398496    3.872061068246   -0.061088648450
 C    0.401259398496    4.948971068246    0.014451351550
 H    0.865159398496    5.935131068246   -0.012538648450
 C    0.776819398496    2.558091068246   -0.036688648450
 O    1.589849398496    1.612801068246   -0.108998648450
 N   -0.576840601504    2.347221068246    0.067101351550
 C   -1.408750601504    3.394421068246    0.142621351550
 N   -2.729040601504    3.132551068246    0.244671351550
 H   -3.047160601504    2.172111068246    0.259991351550
 H   -3.410000601504    3.876121068246    0.304281351550
 C   -0.949590601504    4.756661068246    0.119061351550
 H   -1.633750601504    5.601131068246    0.181131351550
 H    2.242869398496    3.991141068246   -0.138618648450
NA   -0.039090601504   -0.039658931754    0.002681351550
 O   -1.581749782268   -1.604592317787    0.108445945278
 C   -0.768723645160   -2.549875864149    0.036136307208
 N   -1.228917275373   -3.863845312084    0.060534385075
 H   -2.234780673749   -3.982920651918    0.138065731971
 C   -0.393175526088   -4.940756469123   -0.015001373653
 H   -0.857077430208   -5.926918603042    0.011981854039
 C    0.957681060615   -4.748454817242   -0.119615269700
 H    1.641838925891   -5.592922490750   -0.181682360668
 C    1.416846999471   -3.386211227161   -0.143181123773
 N    0.584931576467   -2.339008158384   -0.067659899523
 N    2.737135833995   -3.124348133752   -0.245230771692
 H    3.055258872240   -2.163898132837   -0.260549475303
 H    3.418089010513   -3.867914208626   -0.304835000451
