27

 N    1.364095543617    4.000982189569   -0.069801664698
 C    0.528345543617    5.077892189569    0.005738335302
 H    0.992245543617    6.064052189569   -0.021251664698
 C    0.903905543617    2.687012189569   -0.045401664698
 O    1.716935543617    1.741722189569   -0.117711664698
 N   -0.449754456383    2.476142189569    0.058388335302
 C   -1.281664456383    3.523342189569    0.133908335302
 N   -2.601954456383    3.261472189569    0.235958335302
 H   -2.920074456383    2.301032189569    0.251278335302
 H   -3.282914456383    4.005042189569    0.295568335302
 C   -0.822504456383    4.885582189569    0.110348335302
 H   -1.506664456383    5.730052189569    0.172418335302
 H    2.369955543617    4.120062189569   -0.147331664698
NA    0.087995543617    0.089262189569   -0.006031664698
 O   -1.735147124558   -1.760204539379    0.118962855162
 C   -0.922120987450   -2.705488085741    0.046653217092
 N   -1.382314617663   -4.019457533676    0.071051294959
 H   -2.388178016039   -4.138532873510    0.148582641855
 C   -0.546572868378   -5.096368690715   -0.004484463769
 H   -1.010474772498   -6.082530824634    0.022498763924
 C    0.804283718325   -4.904067038834   -0.109098359816
 H    1.488441583601   -5.748534712342   -0.171165450784
 C    1.263449657181   -3.541823448753   -0.132664213888
 N    0.431534234177   -2.494620379976   -0.057142989639
 N    2.583738491705   -3.279960355344   -0.234713861808
 H    2.901861529950   -2.319510354429   -0.250032565419
 H    3.264691668223   -4.023526430219   -0.294318090567
