27

 N    1.459410152458    4.097673030561   -0.076336426884
 C    0.623660152458    5.174583030561   -0.000796426884
 H    1.087560152458    6.160743030561   -0.027786426884
 C    0.999220152458    2.783703030561   -0.051936426884
 O    1.812250152458    1.838413030561   -0.124246426884
 N   -0.354439847542    2.572833030561    0.051853573116
 C   -1.186349847542    3.620033030561    0.127373573116
 N   -2.506639847542    3.358163030561    0.229423573116
 H   -2.824759847542    2.397723030561    0.244743573116
 H   -3.187599847542    4.101733030561    0.289033573116
 C   -0.727189847542    4.982273030561    0.103813573116
 H   -1.411349847542    5.826743030561    0.165883573116
 H    2.465270152458    4.216753030561   -0.153866426884
NA    0.183310152458    0.185953030561   -0.012566426884
 O   -1.850195131275   -1.876913705573    0.126850537576
 C   -1.037168994167   -2.822197251935    0.054540899506
 N   -1.497362624381   -4.136166699871    0.078938977372
 H   -2.503226022756   -4.255242039704    0.156470324269
 C   -0.661620875095   -5.213077856909    0.003403218644
 H   -1.125522779216   -6.199239990829    0.030386446337
 C    0.689235711608   -5.020776205029   -0.101210677403
 H    1.373393576884   -5.865243878536   -0.163277768371
 C    1.148401650463   -3.658532614948   -0.124776531475
 N    0.316486227459   -2.611329546171   -0.049255307226
 N    2.468690484988   -3.396669521538   -0.226826179395
 H    2.786813523233   -2.436219520624   -0.242144883005
 H    3.149643661506   -4.140235596413   -0.286430408154
