27

 N    1.650039370141    4.291054712545   -0.089405951256
 C    0.814289370141    5.367964712545   -0.013865951256
 H    1.278189370141    6.354124712545   -0.040855951256
 C    1.189849370141    2.977084712545   -0.065005951256
 O    2.002879370141    2.031794712545   -0.137315951256
 N   -0.163810629859    2.766214712545    0.038784048744
 C   -0.995720629859    3.813414712545    0.114304048744
 N   -2.316010629859    3.551544712545    0.216354048744
 H   -2.634130629859    2.591104712545    0.231674048744
 H   -2.996970629859    4.295114712545    0.275964048744
 C   -0.536560629859    5.175654712545    0.090744048744
 H   -1.220720629859    6.020124712545    0.152814048744
 H    2.655899370141    4.410134712545   -0.166935951256
NA    0.373939370141    0.379334712545   -0.025635951256
 O   -2.080291144710   -2.110332037962    0.142625902402
 C   -1.267265007602   -3.055615584323    0.070316264332
 N   -1.727458637815   -4.369585032259    0.094714342199
 H   -2.733322036191   -4.488660372093    0.172245689095
 C   -0.891716888530   -5.446496189298    0.019178583471
 H   -1.355618792651   -6.432658323217    0.046161811163
 C    0.459139698173   -5.254194537417   -0.085435312576
 H    1.143297563449   -6.098662210925   -0.147502403544
 C    0.918305637028   -3.891950947336   -0.109001166649
 N    0.086390214024   -2.844747878559   -0.033479942399
 N    2.238594471553   -3.630087853927   -0.211050814568
 H    2.556717509798   -2.669637853012   -0.226369518179
 H    2.919547648071   -4.373653928801   -0.270655043327
