27

 N    1.872440124104    4.516666674860   -0.104653729691
 C    1.036690124104    5.593576674860   -0.029113729691
 H    1.500590124104    6.579736674860   -0.056103729691
 C    1.412250124104    3.202696674860   -0.080253729691
 O    2.225280124104    2.257406674860   -0.152563729691
 N    0.058590124104    2.991826674860    0.023536270309
 C   -0.773319875896    4.039026674860    0.099056270309
 N   -2.093609875896    3.777156674860    0.201106270309
 H   -2.411729875896    2.816716674860    0.216426270309
 H   -2.774569875896    4.520726674860    0.260716270309
 C   -0.314159875896    5.401266674860    0.075496270309
 H   -0.998319875896    6.245736674860    0.137566270309
 H    2.878300124104    4.635746674860   -0.182183729691
NA    0.596340124104    0.604946674860   -0.040883729691
 O   -2.348736493717   -2.382653425748    0.161030494700
 C   -1.535710356610   -3.327936972110    0.088720856630
 N   -1.995903986823   -4.641906420045    0.113118934496
 H   -3.001767385199   -4.760981759879    0.190650281393
 C   -1.160162237537   -5.718817577084    0.037583175768
 H   -1.624064141658   -6.704979711003    0.064566403461
 C    0.190694349165   -5.526515925203   -0.067030720279
 H    0.874852214441   -6.370983598711   -0.129097811247
 C    0.649860288021   -4.164272335122   -0.090596574351
 N   -0.182055134983   -3.117069266345   -0.015075350102
 N    1.970149122545   -3.902409241713   -0.192646222271
 H    2.288272160790   -2.941959240798   -0.207964925881
 H    2.651102299063   -4.645975316588   -0.252250451030
