27

 N    1.935983196664    4.581127235521   -0.109010237815
 C    1.100233196664    5.658037235521   -0.033470237815
 H    1.564133196664    6.644197235521   -0.060460237815
 C    1.475793196664    3.267157235521   -0.084610237815
 O    2.288823196664    2.321867235521   -0.156920237815
 N    0.122133196664    3.056287235521    0.019179762185
 C   -0.709776803336    4.103487235521    0.094699762185
 N   -2.030066803336    3.841617235521    0.196749762185
 H   -2.348186803336    2.881177235521    0.212069762185
 H   -2.711026803336    4.585187235521    0.256359762185
 C   -0.250616803336    5.465727235521    0.071139762185
 H   -0.934776803336    6.310197235521    0.133209762185
 H    2.941843196664    4.700207235521   -0.186540237815
NA    0.659883196664    0.669407235521   -0.045240237815
 O   -2.425435164862   -2.460459536544    0.166288949642
 C   -1.612409027755   -3.405743082906    0.093979311572
 N   -2.072602657968   -4.719712530841    0.118377389439
 H   -3.078466056344   -4.838787870675    0.195908736335
 C   -1.236860908682   -5.796623687880    0.042841630711
 H   -1.700762812803   -6.782785821800    0.069824858403
 C    0.113995678020   -5.604322035999   -0.061772265337
 H    0.798153543296   -6.448789709507   -0.123839356305
 C    0.573161616876   -4.242078445919   -0.085338119409
 N   -0.258753806128   -3.194875377141   -0.009816895159
 N    1.893450451400   -3.980215352509   -0.187387767329
 H    2.211573489645   -3.019765351594   -0.202706470939
 H    2.574403627918   -4.723781427384   -0.246991996087
