27

 N    1.999526269225    4.645587796183   -0.113366745939
 C    1.163776269225    5.722497796183   -0.037826745939
 H    1.627676269225    6.708657796183   -0.064816745939
 C    1.539336269225    3.331617796183   -0.088966745939
 O    2.352366269225    2.386327796183   -0.161276745939
 N    0.185676269225    3.120747796183    0.014823254061
 C   -0.646233730775    4.167947796183    0.090343254061
 N   -1.966523730775    3.906077796183    0.192393254061
 H   -2.284643730775    2.945637796183    0.207713254061
 H   -2.647483730775    4.649647796183    0.252003254061
 C   -0.187073730775    5.530187796183    0.066783254061
 H   -0.871233730775    6.374657796183    0.128853254061
 H    3.005386269225    4.764667796183   -0.190896745939
NA    0.723426269225    0.733867796183   -0.049596745939
 O   -2.502133836007   -2.538265647340    0.171547404584
 C   -1.689107698900   -3.483549193702    0.099237766514
 N   -2.149301329113   -4.797518641638    0.123635844381
 H   -3.155164727489   -4.916593981471    0.201167191277
 C   -1.313559579827   -5.874429798676    0.048100085653
 H   -1.777461483948   -6.860591932596    0.075083313345
 C    0.037297006875   -5.682128146796   -0.056513810395
 H    0.721454872151   -6.526595820303   -0.118580901362
 C    0.496462945731   -4.319884556715   -0.080079664467
 N   -0.335452477273   -3.272681487938   -0.004558440217
 N    1.816751780255   -4.058021463305   -0.182129312387
 H    2.134874818500   -3.097571462391   -0.197448015997
 H    2.497704956773   -4.801587538180   -0.241733541145
