27

 N    2.031297805506    4.677818076513   -0.115545000001
 C    1.195547805506    5.754728076513   -0.040005000001
 H    1.659447805506    6.740888076513   -0.066995000001
 C    1.571107805506    3.363848076513   -0.091145000001
 O    2.384137805506    2.418558076513   -0.163455000001
 N    0.217447805506    3.152978076513    0.012644999999
 C   -0.614462194494    4.200178076513    0.088164999999
 N   -1.934752194494    3.938308076513    0.190214999999
 H   -2.252872194494    2.977868076513    0.205534999999
 H   -2.615712194494    4.681878076513    0.249824999999
 C   -0.155302194494    5.562418076513    0.064604999999
 H   -0.839462194494    6.406888076513    0.126674999999
 H    3.037157805506    4.796898076513   -0.193075000001
NA    0.755197805506    0.766098076513   -0.051775000001
 O   -2.540483171580   -2.577168702738    0.174176632055
 C   -1.727457034472   -3.522452249100    0.101866993985
 N   -2.187650664685   -4.836421697036    0.126265071852
 H   -3.193514063061   -4.955497036869    0.203796418748
 C   -1.351908915400   -5.913332854074    0.050729313124
 H   -1.815810819521   -6.899494987994    0.077712540816
 C   -0.001052328697   -5.721031202194   -0.053884582924
 H    0.683105536579   -6.565498875701   -0.115951673891
 C    0.458113610158   -4.358787612113   -0.077450436996
 N   -0.373801812846   -3.311584543336   -0.001929212746
 N    1.778402444683   -4.096924518703   -0.179500084915
 H    2.096525482928   -3.136474517789   -0.194818788526
 H    2.459355621201   -4.840490593578   -0.239104313674
