27

 N    2.126612414347    4.774508917505   -0.122079762187
 C    1.290862414347    5.851418917505   -0.046539762187
 H    1.754762414347    6.837578917505   -0.073529762187
 C    1.666422414347    3.460538917505   -0.097679762187
 O    2.479452414347    2.515248917505   -0.169989762187
 N    0.312762414347    3.249668917505    0.006110237813
 C   -0.519147585653    4.296868917505    0.081630237813
 N   -1.839437585653    4.034998917505    0.183680237813
 H   -2.157557585653    3.074558917505    0.199000237813
 H   -2.520397585653    4.778568917505    0.243290237813
 C   -0.059987585653    5.659108917505    0.058070237813
 H   -0.744147585653    6.503578917505    0.120140237813
 H    3.132472414347    4.893588917505   -0.199609762187
NA    0.850512414347    0.862788917505   -0.058309762187
 O   -2.655531178297   -2.693877868933    0.182064314468
 C   -1.842505041190   -3.639161415294    0.109754676398
 N   -2.302698671403   -4.953130863230    0.134152754265
 H   -3.308562069778   -5.072206203064    0.211684101161
 C   -1.466956922117   -6.030042020269    0.058616995537
 H   -1.930858826238   -7.016204154188    0.085600223230
 C   -0.116100335415   -5.837740368388   -0.045996900510
 H    0.568057529862   -6.682208041896   -0.108063991478
 C    0.343065603441   -4.475496778307   -0.069562754582
 N   -0.488849819563   -3.428293709530    0.005958469667
 N    1.663354437965   -4.213633684898   -0.171612402502
 H    1.981477476210   -3.253183683983   -0.186931106113
 H    2.344307614483   -4.957199759772   -0.231216631261
