27

 N    2.380784704590    5.032351160151   -0.139505794683
 C    1.545034704590    6.109261160151   -0.063965794683
 H    2.008934704590    7.095421160151   -0.090955794683
 C    1.920594704590    3.718381160151   -0.115105794683
 O    2.733624704590    2.773091160151   -0.187415794683
 N    0.566934704590    3.507511160151   -0.011315794683
 C   -0.264975295410    4.554711160151    0.064204205317
 N   -1.585265295410    4.292841160151    0.166254205317
 H   -1.903385295410    3.332401160151    0.181574205317
 H   -2.266225295410    5.036411160151    0.225864205317
 C    0.194184704590    5.916951160151    0.040644205317
 H   -0.489975295410    6.761421160151    0.102714205317
 H    3.386644704590    5.151431160151   -0.217035794683
NA    1.104684704590    1.120631160151   -0.075735794683
 O   -2.962325862877   -3.005102312117    0.203098134237
 C   -2.149299725770   -3.950385858479    0.130788496167
 N   -2.609493355983   -5.264355306414    0.155186574034
 H   -3.615356754358   -5.383430646248    0.232717920930
 C   -1.773751606697   -6.341266463453    0.079650815306
 H   -2.237653510818   -7.327428597372    0.106634042998
 C   -0.422895019995   -6.148964811572   -0.024963080742
 H    0.261262845282   -6.993432485080   -0.087030171710
 C    0.036270918861   -4.786721221491   -0.048528934814
 N   -0.795644504143   -3.739518152714    0.026992289436
 N    1.356559753385   -4.524858128082   -0.150578582734
 H    1.674682791631   -3.564408127167   -0.165897286344
 H    2.037512929903   -5.268424202956   -0.210182811492
