27

 N    2.412556240870    5.064581440482   -0.141684048745
 C    1.576806240870    6.141491440482   -0.066144048745
 H    2.040706240870    7.127651440482   -0.093134048745
 C    1.952366240870    3.750611440482   -0.117284048745
 O    2.765396240870    2.805321440482   -0.189594048745
 N    0.598706240870    3.539741440482   -0.013494048745
 C   -0.233203759130    4.586941440482    0.062025951255
 N   -1.553493759130    4.325071440482    0.164075951255
 H   -1.871613759130    3.364631440482    0.179395951255
 H   -2.234453759130    5.068641440482    0.223685951255
 C    0.225956240870    5.949181440482    0.038465951255
 H   -0.458203759130    6.793651440482    0.100535951255
 H    3.418416240870    5.183661440482   -0.219214048745
NA    1.136456240870    1.152861440482   -0.077914048745
 O   -3.000675198450   -3.044005367515    0.205727361708
 C   -2.187649061342   -3.989288913877    0.133417723638
 N   -2.647842691555   -5.303258361812    0.157815801505
 H   -3.653706089931   -5.422333701646    0.235347148401
 C   -1.812100942270   -6.380169518851    0.082280042777
 H   -2.276002846390   -7.366331652770    0.109263270469
 C   -0.461244355567   -6.187867866970   -0.022333853271
 H    0.222913509709   -7.032335540478   -0.084400944238
 C   -0.002078416711   -4.825624276889   -0.045899707343
 N   -0.833993839715   -3.778421208112    0.029621516907
 N    1.318210417813   -4.563761183480   -0.147949355263
 H    1.636333456058   -3.603311182565   -0.163268058873
 H    1.999163594331   -5.307327258355   -0.207553584021
