27

 N    2.666728531113    5.322423683127   -0.159110081241
 C    1.830978531113    6.399333683127   -0.083570081241
 H    2.294878531113    7.385493683127   -0.110560081241
 C    2.206538531113    4.008453683127   -0.134710081241
 O    3.019568531113    3.063163683127   -0.207020081241
 N    0.852878531113    3.797583683127   -0.030920081241
 C    0.020968531113    4.844783683127    0.044599918759
 N   -1.299321468887    4.582913683127    0.146649918759
 H   -1.617441468887    3.622473683127    0.161969918759
 H   -1.980281468887    5.326483683127    0.206259918759
 C    0.480128531113    6.207023683127    0.021039918759
 H   -0.204031468887    7.051493683127    0.083109918759
 H    3.672588531113    5.441503683127   -0.236640081241
NA    1.390628531113    1.410703683127   -0.095340081241
 O   -3.307469883030   -3.355229810700    0.226761181477
 C   -2.494443745922   -4.300513357061    0.154451543407
 N   -2.954637376135   -5.614482804997    0.178849621273
 H   -3.960500774511   -5.733558144831    0.256380968170
 C   -2.118895626850   -6.691393962036    0.103313862545
 H   -2.582797530970   -7.677556095955    0.130297090238
 C   -0.768039040147   -6.499092310155   -0.001300033502
 H   -0.083881174871   -7.343559983663   -0.063367124470
 C   -0.308873101291   -5.136848720074   -0.024865887574
 N   -1.140788524295   -4.089645651297    0.050655336675
 N    1.011415733233   -4.874985626665   -0.126915535494
 H    1.329538771478   -3.914535625750   -0.142234239105
 H    1.692368909751   -5.618551701539   -0.186519764253
