27

 N    2.730271603674    5.386884243789   -0.163466589365
 C    1.894521603674    6.463794243789   -0.087926589365
 H    2.358421603674    7.449954243789   -0.114916589365
 C    2.270081603674    4.072914243789   -0.139066589365
 O    3.083111603674    3.127624243789   -0.211376589365
 N    0.916421603674    3.862044243789   -0.035276589365
 C    0.084511603674    4.909244243789    0.040243410635
 N   -1.235778396326    4.647374243789    0.142293410635
 H   -1.553898396326    3.686934243789    0.157613410635
 H   -1.916738396326    5.390944243789    0.201903410635
 C    0.543671603674    6.271484243789    0.016683410635
 H   -0.140488396326    7.115954243789    0.078753410635
 H    3.736131603674    5.505964243789   -0.240996589365
NA    1.454171603674    1.475164243789   -0.099696589365
 O   -3.384168554175   -3.433035921496    0.232019636419
 C   -2.571142417067   -4.378319467857    0.159709998349
 N   -3.031336047280   -5.692288915793    0.184108076215
 H   -4.037199445656   -5.811364255627    0.261639423112
 C   -2.195594297995   -6.769200072832    0.108572317487
 H   -2.659496202115   -7.755362206751    0.135555545180
 C   -0.844737711292   -6.576898420951    0.003958421440
 H   -0.160579846016   -7.421366094459   -0.058108669528
 C   -0.385571772436   -5.214654830870   -0.019607432632
 N   -1.217487195440   -4.167451762093    0.055913791617
 N    0.934717062088   -4.952791737461   -0.121657080552
 H    1.252840100333   -3.992341736546   -0.136975784162
 H    1.615670238606   -5.696357812335   -0.181261309311
