27

 N    2.762043139955    5.419114524120   -0.165644843427
 C    1.926293139955    6.496024524120   -0.090104843427
 H    2.390193139955    7.482184524120   -0.117094843427
 C    2.301853139955    4.105144524120   -0.141244843427
 O    3.114883139955    3.159854524120   -0.213554843427
 N    0.948193139955    3.894274524120   -0.037454843427
 C    0.116283139955    4.941474524120    0.038065156573
 N   -1.204006860045    4.679604524120    0.140115156573
 H   -1.522126860045    3.719164524120    0.155435156573
 H   -1.884966860045    5.423174524120    0.199725156573
 C    0.575443139955    6.303714524120    0.014505156573
 H   -0.108716860045    7.148184524120    0.076575156573
 H    3.767903139955    5.538194524120   -0.243174843427
NA    1.485943139955    1.507394524120   -0.101874843427
 O   -3.422517889747   -3.471938976894    0.234648863890
 C   -2.609491752640   -4.417222523256    0.162339225820
 N   -3.069685382853   -5.731191971191    0.186737303687
 H   -4.075548781228   -5.850267311025    0.264268650583
 C   -2.233943633567   -6.808103128230    0.111201544959
 H   -2.697845537688   -7.794265262149    0.138184772651
 C   -0.883087046864   -6.615801476349    0.006587648911
 H   -0.198929181588   -7.460269149857   -0.055479442057
 C   -0.423921108009   -5.253557886268   -0.016978205161
 N   -1.255836531013   -4.206354817491    0.058543019089
 N    0.896367726516   -4.991694792859   -0.119027853081
 H    1.214490764761   -4.031244791944   -0.134346556691
 H    1.577320903034   -5.735260867733   -0.178632081839
