27

 N    2.857357748796    5.515805365112   -0.172179605613
 C    2.021607748796    6.592715365112   -0.096639605613
 H    2.485507748796    7.578875365112   -0.123629605613
 C    2.397167748796    4.201835365112   -0.147779605613
 O    3.210197748796    3.256545365112   -0.220089605613
 N    1.043507748796    3.990965365112   -0.043989605613
 C    0.211597748796    5.038165365112    0.031530394387
 N   -1.108692251204    4.776295365112    0.133580394387
 H   -1.426812251204    3.815855365112    0.148900394387
 H   -1.789652251204    5.519865365112    0.193190394387
 C    0.670757748796    6.400405365112    0.007970394387
 H   -0.013402251204    7.244875365112    0.070040394387
 H    3.863217748796    5.634885365112   -0.249709605613
NA    1.581257748796    1.604085365112   -0.108409605613
 O   -3.537565896465   -3.588648143088    0.242536546303
 C   -2.724539759357   -4.533931689450    0.170226908233
 N   -3.184733389570   -5.847901137385    0.194624986100
 H   -4.190596787946   -5.966976477219    0.272156332996
 C   -2.348991640285   -6.924812294424    0.119089227372
 H   -2.812893544405   -7.910974428343    0.146072455064
 C   -0.998135053582   -6.732510642543    0.014475331324
 H   -0.313977188306   -7.576978316051   -0.047591759643
 C   -0.538969114726   -5.370267052462   -0.009090522748
 N   -1.370884537730   -4.323063983685    0.066430701502
 N    0.781319719798   -5.108403959053   -0.111140170667
 H    1.099442758043   -4.147953958138   -0.126458874278
 H    1.462272896316   -5.851970033927   -0.170744399426
