27

 N    2.889129285076    5.548035645442   -0.174357859675
 C    2.053379285076    6.624945645442   -0.098817859675
 H    2.517279285076    7.611105645442   -0.125807859675
 C    2.428939285076    4.234065645442   -0.149957859675
 O    3.241969285076    3.288775645442   -0.222267859675
 N    1.075279285076    4.023195645442   -0.046167859675
 C    0.243369285076    5.070395645442    0.029352140325
 N   -1.076920714924    4.808525645442    0.131402140325
 H   -1.395040714924    3.848085645442    0.146722140325
 H   -1.757880714924    5.552095645442    0.191012140325
 C    0.702529285076    6.432635645442    0.005792140325
 H    0.018369285076    7.277105645442    0.067862140325
 H    3.894989285076    5.667115645442   -0.251887859675
NA    1.613029285076    1.636315645442   -0.110587859675
 O   -3.575915232037   -3.627551198486    0.245165773774
 C   -2.762889094929   -4.572834744848    0.172856135704
 N   -3.223082725143   -5.886804192783    0.197254213571
 H   -4.228946123518   -6.005879532617    0.274785560467
 C   -2.387340975857   -6.963715349822    0.121718454843
 H   -2.851242879978   -7.949877483741    0.148701682535
 C   -1.036484389154   -6.771413697941    0.017104558796
 H   -0.352326523878   -7.615881371449   -0.044962532172
 C   -0.577318450299   -5.409170107860   -0.006461295277
 N   -1.409233873303   -4.361967039083    0.069059928973
 N    0.742970384226   -5.147307014451   -0.108510943196
 H    1.061093422471   -4.186857013536   -0.123829646807
 H    1.423923560744   -5.890873089325   -0.168115171955
