27

 N    3.016215430198    5.676956766765   -0.183070875923
 C    2.180465430198    6.753866766765   -0.107530875923
 H    2.644365430198    7.740026766765   -0.134520875923
 C    2.556025430198    4.362986766765   -0.158670875923
 O    3.369055430198    3.417696766765   -0.230980875923
 N    1.202365430198    4.152116766765   -0.054880875923
 C    0.370455430198    5.199316766765    0.020639124077
 N   -0.949834569802    4.937446766765    0.122689124077
 H   -1.267954569802    3.977006766765    0.138009124077
 H   -1.630794569802    5.681016766765    0.182299124077
 C    0.829615430198    6.561556766765   -0.002920875923
 H    0.145455430198    7.406026766765    0.059149124077
 H    4.022075430198    5.796036766765   -0.260600875923
NA    1.740115430198    1.765236766765   -0.119300875923
 O   -3.729312574327   -3.783163420078    0.255682683658
 C   -2.916286437219   -4.728446966440    0.183373045588
 N   -3.376480067432   -6.042416414375    0.207771123455
 H   -4.382343465808   -6.161491754209    0.285302470351
 C   -2.540738318147   -7.119327571414    0.132235364727
 H   -3.004640222268   -8.105489705334    0.159218592420
 C   -1.189881731444   -6.927025919533    0.027621468680
 H   -0.505723866168   -7.771493593041   -0.034445622288
 C   -0.730715792589   -5.564782329453    0.004055614608
 N   -1.562631215593   -4.517579260676    0.079576838857
 N    0.589573041936   -5.302919236043   -0.097994033312
 H    0.907696080181   -4.342469235128   -0.113312736923
 H    1.270526218454   -6.046485310918   -0.157598262071
