27

 N    3.143301575319    5.805877888088   -0.191783892172
 C    2.307551575319    6.882787888088   -0.116243892172
 H    2.771451575319    7.868947888088   -0.143233892172
 C    2.683111575319    4.491907888088   -0.167383892172
 O    3.496141575319    3.546617888088   -0.239693892172
 N    1.329451575319    4.281037888088   -0.063593892172
 C    0.497541575319    5.328237888088    0.011926107828
 N   -0.822748424681    5.066367888088    0.113976107828
 H   -1.140868424681    4.105927888088    0.129296107828
 H   -1.503708424681    5.809937888088    0.173586107828
 C    0.956701575319    6.690477888088   -0.011633892172
 H    0.272541575319    7.534947888088    0.050436107828
 H    4.149161575319    5.924957888088   -0.269313892172
NA    1.867201575319    1.894157888088   -0.128013892172
 O   -3.882709916617   -3.938775641671    0.266199593543
 C   -3.069683779509   -4.884059188032    0.193889955473
 N   -3.529877409722   -6.198028635968    0.218288033339
 H   -4.535740808098   -6.317103975801    0.295819380236
 C   -2.694135660437   -7.274939793006    0.142752274611
 H   -3.158037564558   -8.261101926926    0.169735502304
 C   -1.343279073734   -7.082638141126    0.038138378564
 H   -0.659121208458   -7.927105814633   -0.023928712404
 C   -0.884113134879   -5.720394551045    0.014572524492
 N   -1.716028557883   -4.673191482268    0.090093748741
 N    0.436175699646   -5.458531457636   -0.087477123428
 H    0.754298737891   -4.498081456721   -0.102795827038
 H    1.117128876164   -6.202097532510   -0.147081352187
