27

 N    3.175073111600    5.838108168419   -0.193962146234
 C    2.339323111600    6.915018168419   -0.118422146234
 H    2.803223111600    7.901178168419   -0.145412146234
 C    2.714883111600    4.524138168419   -0.169562146234
 O    3.527913111600    3.578848168419   -0.241872146234
 N    1.361223111600    4.313268168419   -0.065772146234
 C    0.529313111600    5.360468168419    0.009747853766
 N   -0.790976888400    5.098598168419    0.111797853766
 H   -1.109096888400    4.138158168419    0.127117853766
 H   -1.471936888400    5.842168168419    0.171407853766
 C    0.988473111600    6.722708168419   -0.013812146234
 H    0.304313111600    7.567178168419    0.048257853766
 H    4.180933111600    5.957188168419   -0.271492146234
NA    1.898973111600    1.926388168419   -0.130192146234
 O   -3.921059252189   -3.977678697069    0.268828821014
 C   -3.108033115082   -4.922962243430    0.196519182944
 N   -3.568226745295   -6.236931691366    0.220917260811
 H   -4.574090143671   -6.356007031199    0.298448607707
 C   -2.732484996009   -7.313842848405    0.145381502083
 H   -3.196386900130   -8.300004982324    0.172364729775
 C   -1.381628409307   -7.121541196524    0.040767606035
 H   -0.697470544031   -7.966008870031   -0.021299484933
 C   -0.922462470451   -5.759297606443    0.017201751963
 N   -1.754377893455   -4.712094537666    0.092722976213
 N    0.397826364073   -5.497434513034   -0.084847895957
 H    0.715949402318   -4.536984512119   -0.100166599567
 H    1.078779540591   -6.241000587908   -0.144452124715
