27

 N    3.238616184160    5.902568729080   -0.198318654358
 C    2.402866184160    6.979478729080   -0.122778654358
 H    2.866766184160    7.965638729080   -0.149768654358
 C    2.778426184160    4.588598729080   -0.173918654358
 O    3.591456184160    3.643308729080   -0.246228654358
 N    1.424766184160    4.377728729080   -0.070128654358
 C    0.592856184160    5.424928729080    0.005391345642
 N   -0.727433815840    5.163058729080    0.107441345642
 H   -1.045553815840    4.202618729080    0.122761345642
 H   -1.408393815840    5.906628729080    0.167051345642
 C    1.052016184160    6.787168729080   -0.018168654358
 H    0.367856184160    7.631638729080    0.043901345642
 H    4.244476184160    6.021648729080   -0.275848654358
NA    1.962516184160    1.990848729080   -0.134548654358
 O   -3.997757923334   -4.055484807865    0.274087275956
 C   -3.184731786227   -5.000768354226    0.201777637886
 N   -3.644925416440   -6.314737802162    0.226175715753
 H   -4.650788814816   -6.433813141996    0.303707062649
 C   -2.809183667154   -7.391648959201    0.150639957025
 H   -3.273085571275   -8.377811093120    0.177623184717
 C   -1.458327080452   -7.199347307320    0.046026060977
 H   -0.774169215176   -8.043814980828   -0.016041029990
 C   -0.999161141596   -5.837103717239    0.022460206905
 N   -1.831076564600   -4.789900648462    0.097981431155
 N    0.321127692928   -5.575240623830   -0.079589441015
 H    0.639250731173   -4.614790622915   -0.094908144625
 H    1.002080869446   -6.318806698704   -0.139193669773
