27

 N    3.302159256721    5.967029289741   -0.202675162482
 C    2.466409256721    7.043939289741   -0.127135162482
 H    2.930309256721    8.030099289741   -0.154125162482
 C    2.841969256721    4.653059289741   -0.178275162482
 O    3.654999256721    3.707769289741   -0.250585162482
 N    1.488309256721    4.442189289741   -0.074485162482
 C    0.656399256721    5.489389289741    0.001034837518
 N   -0.663890743279    5.227519289741    0.103084837518
 H   -0.982010743279    4.267079289741    0.118404837518
 H   -1.344850743279    5.971089289741    0.162694837518
 C    1.115559256721    6.851629289741   -0.022525162482
 H    0.431399256721    7.696099289741    0.039544837518
 H    4.308019256721    6.086109289741   -0.280205162482
NA    2.026059256721    2.055309289741   -0.138905162482
 O   -4.074456594479   -4.133290918661    0.279345730898
 C   -3.261430457372   -5.078574465023    0.207036092828
 N   -3.721624087585   -6.392543912958    0.231434170695
 H   -4.727487485961   -6.511619252792    0.308965517591
 C   -2.885882338299   -7.469455069997    0.155898411967
 H   -3.349784242420   -8.455617203916    0.182881639659
 C   -1.535025751597   -7.277153418116    0.051284515920
 H   -0.850867886321   -8.121621091624   -0.010782575048
 C   -1.075859812741   -5.914909828035    0.027718661847
 N   -1.907775235745   -4.867706759258    0.103239886097
 N    0.244429021783   -5.653046734626   -0.074330986072
 H    0.562552060028   -4.692596733711   -0.089649689683
 H    0.925382198301   -6.396612809500   -0.133935214831
