27

 N    3.397473865562    6.063720130734   -0.209209924668
 C    2.561723865562    7.140630130734   -0.133669924668
 H    3.025623865562    8.126790130734   -0.160659924668
 C    2.937283865562    4.749750130734   -0.184809924668
 O    3.750313865562    3.804460130734   -0.257119924668
 N    1.583623865562    4.538880130734   -0.081019924668
 C    0.751713865562    5.586080130734   -0.005499924668
 N   -0.568576134438    5.324210130734    0.096550075332
 H   -0.886696134438    4.363770130734    0.111870075332
 H   -1.249536134438    6.067780130734    0.156160075332
 C    1.210873865562    6.948320130734   -0.029059924668
 H    0.526713865562    7.792790130734    0.033010075332
 H    4.403333865562    6.182800130734   -0.286739924668
NA    2.121373865562    2.152000130734   -0.145439924668
 O   -4.189504601197   -4.250000084855    0.287233413311
 C   -3.376478464089   -5.195283631217    0.214923775241
 N   -3.836672094302   -6.509253079152    0.239321853108
 H   -4.842535492678   -6.628328418986    0.316853200004
 C   -3.000930345017   -7.586164236191    0.163786094380
 H   -3.464832249138   -8.572326370110    0.190769322073
 C   -1.650073758314   -7.393862584310    0.059172198333
 H   -0.965915893038   -8.238330257818   -0.002894892635
 C   -1.190907819459   -6.031618994229    0.035606344261
 N   -2.022823242463   -4.984415925452    0.111127568510
 N    0.129381015066   -5.769755900820   -0.066443303659
 H    0.447504053311   -4.809305899905   -0.081762007270
 H    0.810334191584   -6.513321975694   -0.126047532418
