27

 N    3.461016938123    6.128180691395   -0.213566432792
 C    2.625266938123    7.205090691395   -0.138026432792
 H    3.089166938123    8.191250691395   -0.165016432792
 C    3.000826938123    4.814210691395   -0.189166432792
 O    3.813856938123    3.868920691395   -0.261476432792
 N    1.647166938123    4.603340691395   -0.085376432792
 C    0.815256938123    5.650540691395   -0.009856432792
 N   -0.505033061877    5.388670691395    0.092193567208
 H   -0.823153061877    4.428230691395    0.107513567208
 H   -1.185993061877    6.132240691395    0.151803567208
 C    1.274416938123    7.012780691395   -0.033416432792
 H    0.590256938123    7.857250691395    0.028653567208
 H    4.466876938123    6.247260691395   -0.291096432792
NA    2.184916938123    2.216460691395   -0.149796432792
 O   -4.266203272342   -4.327806195651    0.292491868253
 C   -3.453177135234   -5.273089742013    0.220182230184
 N   -3.913370765447   -6.587059189948    0.244580308050
 H   -4.919234163823   -6.706134529782    0.322111654946
 C   -3.077629016162   -7.663970346987    0.169044549322
 H   -3.541530920283   -8.650132480906    0.196027777015
 C   -1.726772429459   -7.471668695106    0.064430653275
 H   -1.042614564183   -8.316136368614    0.002363562307
 C   -1.267606490604   -6.109425105025    0.040864799203
 N   -2.099521913608   -5.062222036248    0.116386023452
 N    0.052682343921   -5.847562011616   -0.061184848717
 H    0.370805382166   -4.887112010701   -0.076503552328
 H    0.733635520439   -6.591128086491   -0.120789077476
