27

 N    3.492788474403    6.160410971726   -0.215744686854
 C    2.657038474403    7.237320971726   -0.140204686854
 H    3.120938474403    8.223480971726   -0.167194686854
 C    3.032598474403    4.846440971726   -0.191344686854
 O    3.845628474403    3.901150971726   -0.263654686854
 N    1.678938474403    4.635570971726   -0.087554686854
 C    0.847028474403    5.682770971726   -0.012034686854
 N   -0.473261525597    5.420900971726    0.090015313146
 H   -0.791381525597    4.460460971726    0.105335313146
 H   -1.154221525597    6.164470971726    0.149625313146
 C    1.306188474403    7.045010971726   -0.035594686854
 H    0.622028474403    7.889480971726    0.026475313146
 H    4.498648474403    6.279490971726   -0.293274686854
NA    2.216688474403    2.248690971726   -0.151974686854
 O   -4.304552607914   -4.366709251049    0.295121095725
 C   -3.491526470807   -5.311992797411    0.222811457655
 N   -3.951720101020   -6.625962245346    0.247209535521
 H   -4.957583499396   -6.745037585180    0.324740882418
 C   -3.115978351734   -7.702873402385    0.171673776793
 H   -3.579880255855   -8.689035536304    0.198657004486
 C   -1.765121765032   -7.510571750504    0.067059880746
 H   -1.080963899756   -8.355039424012    0.004992789778
 C   -1.305955826176   -6.148328160423    0.043494026674
 N   -2.137871249180   -5.101125091646    0.119015250923
 N    0.014333008348   -5.886465067014   -0.058555621246
 H    0.332456046593   -4.926015066099   -0.073874324857
 H    0.695286184866   -6.630031141889   -0.118159850005
