27

 N    3.651646155805    6.321562373379   -0.226635957164
 C    2.815896155805    7.398472373379   -0.151095957164
 H    3.279796155805    8.384632373379   -0.178085957164
 C    3.191456155805    5.007592373379   -0.202235957164
 O    4.004486155805    4.062302373379   -0.274545957164
 N    1.837796155805    4.796722373379   -0.098445957164
 C    1.005886155805    5.843922373379   -0.022925957164
 N   -0.314403844195    5.582052373379    0.079124042836
 H   -0.632523844195    4.621612373379    0.094444042836
 H   -0.995363844195    6.325622373379    0.138734042836
 C    1.465046155805    7.206162373379   -0.046485957164
 H    0.780886155805    8.050632373379    0.015584042836
 H    4.657506155805    6.440642373379   -0.304165957164
NA    2.375546155805    2.409842373379   -0.162865957164
 O   -4.496299285777   -4.561224528040    0.308267233080
 C   -3.683273148669   -5.506508074401    0.235957595010
 N   -4.143466778882   -6.820477522337    0.260355672877
 H   -5.149330177258   -6.939552862170    0.337887019773
 C   -3.307725029597   -7.897388679375    0.184819914149
 H   -3.771626933718   -8.883550813295    0.211803141841
 C   -1.956868442894   -7.705087027495    0.080206018101
 H   -1.272710577618   -8.549554701002    0.018138927134
 C   -1.497702504039   -6.342843437414    0.056640164029
 N   -2.329617927042   -5.295640368637    0.132161388279
 N   -0.177413669514   -6.080980344005   -0.045409483891
 H    0.140709368731   -5.120530343090   -0.060728187501
 H    0.503539507004   -6.824546418879   -0.105013712649
