14

 H    0.234223214824    3.825342220503    0.000000000000
 H    1.747013214824    3.560742220503    0.907380000000
 H    1.747013214824    3.560742220503   -0.907380000000
 C    1.197763214824    3.290932220503    0.000000000000
 S    0.703533214824    1.511312220503    0.000000000000
 H    1.931533214824    0.954752220503    0.000000000000
RB   -0.052736785176   -0.113287779497    2.741440000000
RB   -0.052736785176   -0.113287779497   -2.741440000000
 S   -0.516964626196   -1.110530233278    0.000000000000
 H   -1.744967548534   -0.553969436663    0.000000000000
 C   -1.011191972696   -2.890147470459    0.000000000000
 H   -0.047659089242   -3.424553363581    0.000000000000
 H   -1.560442643551   -3.159955867208   -0.907385217043
 H   -1.560442643551   -3.159955867208    0.907385217043
