14

 H    0.241844105284    3.841713223771    0.000000000000
 H    1.754634105284    3.577113223771    0.907380000000
 H    1.754634105284    3.577113223771   -0.907380000000
 C    1.205384105284    3.307303223771    0.000000000000
 S    0.711154105284    1.527683223771    0.000000000000
 H    1.939154105284    0.971123223771    0.000000000000
RB   -0.045115894716   -0.096916776229    2.741440000000
RB   -0.045115894716   -0.096916776229   -2.741440000000
 S   -0.551546266737   -1.184817634898    0.000000000000
 H   -1.779549189075   -0.628256838284    0.000000000000
 C   -1.045773613237   -2.964434872079    0.000000000000
 H   -0.082240729784   -3.498840765201    0.000000000000
 H   -1.595024284092   -3.234243268828   -0.907385217043
 H   -1.595024284092   -3.234243268828    0.907385217043
