14

 H    0.272327667126    3.907197236845    0.000000000000
 H    1.785117667126    3.642597236845    0.907380000000
 H    1.785117667126    3.642597236845   -0.907380000000
 C    1.235867667126    3.372787236845    0.000000000000
 S    0.741637667126    1.593167236845    0.000000000000
 H    1.969637667126    1.036607236845    0.000000000000
RB   -0.014632332874   -0.031432763155    2.741440000000
RB   -0.014632332874   -0.031432763155   -2.741440000000
 S   -0.689872828903   -1.481967241381    0.000000000000
 H   -1.917875751241   -0.925406444766    0.000000000000
 C   -1.184100175403   -3.261584478562    0.000000000000
 H   -0.220567291950   -3.795990371684    0.000000000000
 H   -1.733350846258   -3.531392875311   -0.907385217043
 H   -1.733350846258   -3.531392875311    0.907385217043
