14

 H    0.287569448046    3.939939243382    0.000000000000
 H    1.800359448046    3.675339243382    0.907380000000
 H    1.800359448046    3.675339243382   -0.907380000000
 C    1.251109448046    3.405529243382    0.000000000000
 S    0.756879448046    1.625909243382    0.000000000000
 H    1.984879448046    1.069349243382    0.000000000000
RB    0.000609448046    0.001309243382    2.741440000000
RB    0.000609448046    0.001309243382   -2.741440000000
 S   -0.759036109986   -1.630542044623    0.000000000000
 H   -1.987039032324   -1.073981248008    0.000000000000
 C   -1.253263456486   -3.410159281803    0.000000000000
 H   -0.289730573033   -3.944565174926    0.000000000000
 H   -1.802514127341   -3.679967678553   -0.907385217043
 H   -1.802514127341   -3.679967678553    0.907385217043
