14

 H    0.295190338507    3.956310246650    0.000000000000
 H    1.807980338507    3.691710246650    0.907380000000
 H    1.807980338507    3.691710246650   -0.907380000000
 C    1.258730338507    3.421900246650    0.000000000000
 S    0.764500338507    1.642280246650    0.000000000000
 H    1.992500338507    1.085720246650    0.000000000000
RB    0.008230338507    0.017680246650    2.741440000000
RB    0.008230338507    0.017680246650   -2.741440000000
 S   -0.793617750527   -1.704829446243    0.000000000000
 H   -2.021620672866   -1.148268649629    0.000000000000
 C   -1.287845097028   -3.484446683424    0.000000000000
 H   -0.324312213574   -4.018852576546    0.000000000000
 H   -1.837095767883   -3.754255080173   -0.907385217043
 H   -1.837095767883   -3.754255080173    0.907385217043
