14

 H    0.912482465792    5.282361511393    0.000000000000
 H    2.425272465792    5.017761511393    0.907380000000
 H    2.425272465792    5.017761511393   -0.907380000000
 C    1.876022465792    4.747951511393    0.000000000000
 S    1.381792465792    2.968331511393    0.000000000000
 H    2.609792465792    2.411771511393    0.000000000000
RB    0.625522465792    1.343731511393    2.741440000000
RB    0.625522465792    1.343731511393   -2.741440000000
 S   -3.594730634387   -7.722108977520    0.000000000000
 H   -4.822733556726   -7.165548180906    0.000000000000
 C   -4.088957980888   -9.501726214701    0.000000000000
 H   -3.125425097434  -10.036132107824    0.000000000000
 H   -4.638208651743   -9.771534611451   -0.907385217043
 H   -4.638208651743   -9.771534611451    0.907385217043
