14

 H    0.310432119427    3.989052253187    0.000000000000
 H    1.823222119427    3.724452253187    0.907380000000
 H    1.823222119427    3.724452253187   -0.907380000000
 C    1.273972119427    3.454642253187    0.000000000000
 S    0.779742119427    1.675022253187    0.000000000000
 H    2.007742119427    1.118462253187    0.000000000000
RB    0.023472119427    0.050422253187    2.741440000000
RB    0.023472119427    0.050422253187   -2.741440000000
 S   -0.862781031610   -1.853404249485    0.000000000000
 H   -2.090783953949   -1.296843452870    0.000000000000
 C   -1.357008378111   -3.633021486666    0.000000000000
 H   -0.393475494657   -4.167427379788    0.000000000000
 H   -1.906259048966   -3.902829883415   -0.907385217043
 H   -1.906259048966   -3.902829883415    0.907385217043
