14

 H    0.325673900348    4.021794259724    0.000000000000
 H    1.838463900348    3.757194259724    0.907380000000
 H    1.838463900348    3.757194259724   -0.907380000000
 C    1.289213900348    3.487384259724    0.000000000000
 S    0.794983900348    1.707764259724    0.000000000000
 H    2.022983900348    1.151204259724    0.000000000000
RB    0.038713900348    0.083164259724    2.741440000000
RB    0.038713900348    0.083164259724   -2.741440000000
 S   -0.931944312693   -2.001979052726    0.000000000000
 H   -2.159947235032   -1.445418256111    0.000000000000
 C   -1.426171659193   -3.781596289907    0.000000000000
 H   -0.462638775740   -4.316002183029    0.000000000000
 H   -1.975422330048   -4.051404686656   -0.907385217043
 H   -1.975422330048   -4.051404686656    0.907385217043
