14

 H    0.333294790808    4.038165262993    0.000000000000
 H    1.846084790808    3.773565262993    0.907380000000
 H    1.846084790808    3.773565262993   -0.907380000000
 C    1.296834790808    3.503755262993    0.000000000000
 S    0.802604790808    1.724135262993    0.000000000000
 H    2.030604790808    1.167575262993    0.000000000000
RB    0.046334790808    0.099535262993    2.741440000000
RB    0.046334790808    0.099535262993   -2.741440000000
 S   -0.966525953235   -2.076266454347    0.000000000000
 H   -2.194528875573   -1.519705657732    0.000000000000
 C   -1.460753299735   -3.855883691528    0.000000000000
 H   -0.497220416281   -4.390289584650    0.000000000000
 H   -2.010003970590   -4.125692088277   -0.907385217043
 H   -2.010003970590   -4.125692088277    0.907385217043
