14

 H    0.363778352649    4.103649276066    0.000000000000
 H    1.876568352649    3.839049276066    0.907380000000
 H    1.876568352649    3.839049276066   -0.907380000000
 C    1.327318352649    3.569239276066    0.000000000000
 S    0.833088352649    1.789619276066    0.000000000000
 H    2.061088352649    1.233059276066    0.000000000000
RB    0.076818352649    0.165019276066    2.741440000000
RB    0.076818352649    0.165019276066   -2.741440000000
 S   -1.104852515401   -2.373416060830    0.000000000000
 H   -2.332855437739   -1.816855264215    0.000000000000
 C   -1.599079861901   -4.153033298011    0.000000000000
 H   -0.635546978447   -4.687439191133    0.000000000000
 H   -2.148330532756   -4.422841694760   -0.907385217043
 H   -2.148330532756   -4.422841694760    0.907385217043
