14

 H    0.371399243110    4.120020279335    0.000000000000
 H    1.884189243110    3.855420279335    0.907380000000
 H    1.884189243110    3.855420279335   -0.907380000000
 C    1.334939243110    3.585610279335    0.000000000000
 S    0.840709243110    1.805990279335    0.000000000000
 H    2.068709243110    1.249430279335    0.000000000000
RB    0.084439243110    0.181390279335    2.741440000000
RB    0.084439243110    0.181390279335   -2.741440000000
 S   -1.139434155942   -2.447703462450    0.000000000000
 H   -2.367437078281   -1.891142665836    0.000000000000
 C   -1.633661502442   -4.227320699631    0.000000000000
 H   -0.670128618989   -4.761726592753    0.000000000000
 H   -2.182912173297   -4.497129096380   -0.907385217043
 H   -2.182912173297   -4.497129096380    0.907385217043
