14

 H    0.386641024030    4.152762285872    0.000000000000
 H    1.899431024030    3.888162285872    0.907380000000
 H    1.899431024030    3.888162285872   -0.907380000000
 C    1.350181024030    3.618352285872    0.000000000000
 S    0.855951024030    1.838732285872    0.000000000000
 H    2.083951024030    1.282172285872    0.000000000000
RB    0.099681024030    0.214132285872    2.741440000000
RB    0.099681024030    0.214132285872   -2.741440000000
 S   -1.208597437025   -2.596278265692    0.000000000000
 H   -2.436600359364   -2.039717469077    0.000000000000
 C   -1.702824783525   -4.375895502873    0.000000000000
 H   -0.739291900072   -4.910301395995    0.000000000000
 H   -2.252075454380   -4.645703899622   -0.907385217043
 H   -2.252075454380   -4.645703899622    0.907385217043
