14

 H    0.401882804951    4.185504292408    0.000000000000
 H    1.914672804951    3.920904292408    0.907380000000
 H    1.914672804951    3.920904292408   -0.907380000000
 C    1.365422804951    3.651094292408    0.000000000000
 S    0.871192804951    1.871474292408    0.000000000000
 H    2.099192804951    1.314914292408    0.000000000000
RB    0.114922804951    0.246874292408    2.741440000000
RB    0.114922804951    0.246874292408   -2.741440000000
 S   -1.277760718108   -2.744853068933    0.000000000000
 H   -2.505763640447   -2.188292272318    0.000000000000
 C   -1.771988064608   -4.524470306114    0.000000000000
 H   -0.808455181155   -5.058876199236    0.000000000000
 H   -2.321238735463   -4.794278702863   -0.907385217043
 H   -2.321238735463   -4.794278702863    0.907385217043
