14

 H    0.409503695411    4.201875295677    0.000000000000
 H    1.922293695411    3.937275295677    0.907380000000
 H    1.922293695411    3.937275295677   -0.907380000000
 C    1.373043695411    3.667465295677    0.000000000000
 S    0.878813695411    1.887845295677    0.000000000000
 H    2.106813695411    1.331285295677    0.000000000000
RB    0.122543695411    0.263245295677    2.741440000000
RB    0.122543695411    0.263245295677   -2.741440000000
 S   -1.312342358650   -2.819140470554    0.000000000000
 H   -2.540345280988   -2.262579673939    0.000000000000
 C   -1.806569705150   -4.598757707735    0.000000000000
 H   -0.843036821696   -5.133163600857    0.000000000000
 H   -2.355820376005   -4.868566104484   -0.907385217043
 H   -2.355820376005   -4.868566104484    0.907385217043
