14

 H    0.439987257252    4.267359308751    0.000000000000
 H    1.952777257252    4.002759308751    0.907380000000
 H    1.952777257252    4.002759308751   -0.907380000000
 C    1.403527257252    3.732949308751    0.000000000000
 S    0.909297257252    1.953329308751    0.000000000000
 H    2.137297257252    1.396769308751    0.000000000000
RB    0.153027257252    0.328729308751    2.741440000000
RB    0.153027257252    0.328729308751   -2.741440000000
 S   -1.450668920816   -3.116290077037    0.000000000000
 H   -2.678671843154   -2.559729280422    0.000000000000
 C   -1.944896267316   -4.895907314218    0.000000000000
 H   -0.981363383862   -5.430313207340    0.000000000000
 H   -2.494146938171   -5.165715710967   -0.907385217043
 H   -2.494146938171   -5.165715710967    0.907385217043
