14

 H    0.447608147713    4.283730312019    0.000000000000
 H    1.960398147713    4.019130312019    0.907380000000
 H    1.960398147713    4.019130312019   -0.907380000000
 C    1.411148147713    3.749320312019    0.000000000000
 S    0.916918147713    1.969700312019    0.000000000000
 H    2.144918147713    1.413140312019    0.000000000000
RB    0.160648147713    0.345100312019    2.741440000000
RB    0.160648147713    0.345100312019   -2.741440000000
 S   -1.485250561357   -3.190577478657    0.000000000000
 H   -2.713253483695   -2.634016682043    0.000000000000
 C   -1.979477907857   -4.970194715838    0.000000000000
 H   -1.015945024404   -5.504600608961    0.000000000000
 H   -2.528728578712   -5.240003112587   -0.907385217043
 H   -2.528728578712   -5.240003112587    0.907385217043
