14

 H    0.462849928633    4.316472318556    0.000000000000
 H    1.975639928633    4.051872318556    0.907380000000
 H    1.975639928633    4.051872318556   -0.907380000000
 C    1.426389928633    3.782062318556    0.000000000000
 S    0.932159928633    2.002442318556    0.000000000000
 H    2.160159928633    1.445882318556    0.000000000000
RB    0.175889928633    0.377842318556    2.741440000000
RB    0.175889928633    0.377842318556   -2.741440000000
 S   -1.554413842440   -3.339152281899    0.000000000000
 H   -2.782416764778   -2.782591485284    0.000000000000
 C   -2.048641188940   -5.118769519080    0.000000000000
 H   -1.085108305487   -5.653175412202    0.000000000000
 H   -2.597891859795   -5.388577915829   -0.907385217043
 H   -2.597891859795   -5.388577915829    0.907385217043
