14

 H    0.470470819094    4.332843321824    0.000000000000
 H    1.983260819094    4.068243321824    0.907380000000
 H    1.983260819094    4.068243321824   -0.907380000000
 C    1.434010819094    3.798433321824    0.000000000000
 S    0.939780819094    2.018813321824    0.000000000000
 H    2.167780819094    1.462253321824    0.000000000000
RB    0.183510819094    0.394213321824    2.741440000000
RB    0.183510819094    0.394213321824   -2.741440000000
 S   -1.588995482982   -3.413439683519    0.000000000000
 H   -2.816998405320   -2.856878886905    0.000000000000
 C   -2.083222829482   -5.193056920700    0.000000000000
 H   -1.119689946028   -5.727462813823    0.000000000000
 H   -2.632473500337   -5.462865317450   -0.907385217043
 H   -2.632473500337   -5.462865317450    0.907385217043
