14

 H    0.516196161856    4.431069341435    0.000000000000
 H    2.028986161856    4.166469341435    0.907380000000
 H    2.028986161856    4.166469341435   -0.907380000000
 C    1.479736161856    3.896659341435    0.000000000000
 S    0.985506161856    2.117039341435    0.000000000000
 H    2.213506161856    1.560479341435    0.000000000000
RB    0.229236161856    0.492439341435    2.741440000000
RB    0.229236161856    0.492439341435   -2.741440000000
 S   -1.796485326230   -3.859164093244    0.000000000000
 H   -3.024488248569   -3.302603296629    0.000000000000
 C   -2.290712672731   -5.638781330425    0.000000000000
 H   -1.327179789277   -6.173187223547    0.000000000000
 H   -2.839963343586   -5.908589727174   -0.907385217043
 H   -2.839963343586   -5.908589727174    0.907385217043
