14

 H    0.523817052316    4.447440344703    0.000000000000
 H    2.036607052316    4.182840344703    0.907380000000
 H    2.036607052316    4.182840344703   -0.907380000000
 C    1.487357052316    3.913030344703    0.000000000000
 S    0.993127052316    2.133410344703    0.000000000000
 H    2.221127052316    1.576850344703    0.000000000000
RB    0.236857052316    0.508810344703    2.741440000000
RB    0.236857052316    0.508810344703   -2.741440000000
 S   -1.831066966772   -3.933451494864    0.000000000000
 H   -3.059069889110   -3.376890698250    0.000000000000
 C   -2.325294313272   -5.713068732045    0.000000000000
 H   -1.361761429819   -6.247474625168    0.000000000000
 H   -2.874544984127   -5.982877128794   -0.907385217043
 H   -2.874544984127   -5.982877128794    0.907385217043
