14

 H    0.584784175998    4.578408370851    0.000000000000
 H    2.097574175998    4.313808370851    0.907380000000
 H    2.097574175998    4.313808370851   -0.907380000000
 C    1.548324175998    4.043998370851    0.000000000000
 S    1.054094175998    2.264378370851    0.000000000000
 H    2.282094175998    1.707818370851    0.000000000000
RB    0.297824175998    0.639778370851    2.741440000000
RB    0.297824175998    0.639778370851   -2.741440000000
 S   -2.107720091104   -4.527750707830    0.000000000000
 H   -3.335723013442   -3.971189911215    0.000000000000
 C   -2.601947437604   -6.307367945011    0.000000000000
 H   -1.638414554150   -6.841773838133    0.000000000000
 H   -3.151198108459   -6.577176341760   -0.907385217043
 H   -3.151198108459   -6.577176341760    0.907385217043
