14

 H    0.592405066459    4.594779374119    0.000000000000
 H    2.105195066459    4.330179374119    0.907380000000
 H    2.105195066459    4.330179374119   -0.907380000000
 C    1.555945066459    4.060369374119    0.000000000000
 S    1.061715066459    2.280749374119    0.000000000000
 H    2.289715066459    1.724189374119    0.000000000000
RB    0.305445066459    0.656149374119    2.741440000000
RB    0.305445066459    0.656149374119   -2.741440000000
 S   -2.142301731645   -4.602038109451    0.000000000000
 H   -3.370304653984   -4.045477312836    0.000000000000
 C   -2.636529078145   -6.381655346632    0.000000000000
 H   -1.672996194692   -6.916061239754    0.000000000000
 H   -3.185779749000   -6.651463743381   -0.907385217043
 H   -3.185779749000   -6.651463743381    0.907385217043
