14

 H    0.607646847379    4.627521380656    0.000000000000
 H    2.120436847379    4.362921380656    0.907380000000
 H    2.120436847379    4.362921380656   -0.907380000000
 C    1.571186847379    4.093111380656    0.000000000000
 S    1.076956847379    2.313491380656    0.000000000000
 H    2.304956847379    1.756931380656    0.000000000000
RB    0.320686847379    0.688891380656    2.741440000000
RB    0.320686847379    0.688891380656   -2.741440000000
 S   -2.211465012728   -4.750612912692    0.000000000000
 H   -3.439467935067   -4.194052116078    0.000000000000
 C   -2.705692359228   -6.530230149873    0.000000000000
 H   -1.742159475775   -7.064636042995    0.000000000000
 H   -3.254943030083   -6.800038546622   -0.907385217043
 H   -3.254943030083   -6.800038546622    0.907385217043
