14

 H    0.615267737840    4.643892383925    0.000000000000
 H    2.128057737840    4.379292383925    0.907380000000
 H    2.128057737840    4.379292383925   -0.907380000000
 C    1.578807737840    4.109482383925    0.000000000000
 S    1.084577737840    2.329862383925    0.000000000000
 H    2.312577737840    1.773302383925    0.000000000000
RB    0.328307737840    0.705262383925    2.741440000000
RB    0.328307737840    0.705262383925   -2.741440000000
 S   -2.246046653270   -4.824900314313    0.000000000000
 H   -3.474049575608   -4.268339517698    0.000000000000
 C   -2.740273999770   -6.604517551494    0.000000000000
 H   -1.776741116316   -7.138923444616    0.000000000000
 H   -3.289524670625   -6.874325948243   -0.907385217043
 H   -3.289524670625   -6.874325948243    0.907385217043
