14

 H    0.622888628300    4.660263387193    0.000000000000
 H    2.135678628300    4.395663387193    0.907380000000
 H    2.135678628300    4.395663387193   -0.907380000000
 C    1.586428628300    4.125853387193    0.000000000000
 S    1.092198628300    2.346233387193    0.000000000000
 H    2.320198628300    1.789673387193    0.000000000000
RB    0.335928628300    0.721633387193    2.741440000000
RB    0.335928628300    0.721633387193   -2.741440000000
 S   -2.280628293811   -4.899187715934    0.000000000000
 H   -3.508631216150   -4.342626919319    0.000000000000
 C   -2.774855640311   -6.678804953115    0.000000000000
 H   -1.811322756858   -7.213210846237    0.000000000000
 H   -3.324106311166   -6.948613349864   -0.907385217043
 H   -3.324106311166   -6.948613349864    0.907385217043
