14

 H    0.645751299681    4.709376396998    0.000000000000
 H    2.158541299681    4.444776396998    0.907380000000
 H    2.158541299681    4.444776396998   -0.907380000000
 C    1.609291299681    4.174966396998    0.000000000000
 S    1.115061299681    2.395346396998    0.000000000000
 H    2.343061299681    1.838786396998    0.000000000000
RB    0.358791299681    0.770746396998    2.741440000000
RB    0.358791299681    0.770746396998   -2.741440000000
 S   -2.384373215436   -5.122049920796    0.000000000000
 H   -3.612376137774   -4.565489124181    0.000000000000
 C   -2.878600561936   -6.901667157977    0.000000000000
 H   -1.915067678482   -7.436073051099    0.000000000000
 H   -3.427851232791   -7.171475554726   -0.907385217043
 H   -3.427851232791   -7.171475554726    0.907385217043
