14

 H    0.668613971062    4.758489406804    0.000000000000
 H    2.181403971062    4.493889406804    0.907380000000
 H    2.181403971062    4.493889406804   -0.907380000000
 C    1.632153971062    4.224079406804    0.000000000000
 S    1.137923971062    2.444459406804    0.000000000000
 H    2.365923971062    1.887899406804    0.000000000000
RB    0.381653971062    0.819859406804    2.741440000000
RB    0.381653971062    0.819859406804   -2.741440000000
 S   -2.488118137060   -5.344912125658    0.000000000000
 H   -3.716121059398   -4.788351329043    0.000000000000
 C   -2.982345483560   -7.124529362839    0.000000000000
 H   -2.018812600107   -7.658935255961    0.000000000000
 H   -3.531596154415   -7.394337759588   -0.907385217043
 H   -3.531596154415   -7.394337759588    0.907385217043
