14

 H    0.676234861522    4.774860410072    0.000000000000
 H    2.189024861522    4.510260410072    0.907380000000
 H    2.189024861522    4.510260410072   -0.907380000000
 C    1.639774861522    4.240450410072    0.000000000000
 S    1.145544861522    2.460830410072    0.000000000000
 H    2.373544861522    1.904270410072    0.000000000000
RB    0.389274861522    0.836230410072    2.741440000000
RB    0.389274861522    0.836230410072   -2.741440000000
 S   -2.522699777602   -5.419199527279    0.000000000000
 H   -3.750702699940   -4.862638730664    0.000000000000
 C   -3.016927124102   -7.198816764459    0.000000000000
 H   -2.053394240648   -7.733222657582    0.000000000000
 H   -3.566177794957   -7.468625161209   -0.907385217043
 H   -3.566177794957   -7.468625161209    0.907385217043
