14

 H    0.683855751982    4.791231413340    0.000000000000
 H    2.196645751982    4.526631413340    0.907380000000
 H    2.196645751982    4.526631413340   -0.907380000000
 C    1.647395751982    4.256821413340    0.000000000000
 S    1.153165751982    2.477201413340    0.000000000000
 H    2.381165751982    1.920641413340    0.000000000000
RB    0.396895751982    0.852601413340    2.741440000000
RB    0.396895751982    0.852601413340   -2.741440000000
 S   -2.557281418143   -5.493486928899    0.000000000000
 H   -3.785284340481   -4.936926132285    0.000000000000
 C   -3.051508764643   -7.273104166080    0.000000000000
 H   -2.087975881190   -7.807510059202    0.000000000000
 H   -3.600759435498   -7.542912562829   -0.907385217043
 H   -3.600759435498   -7.542912562829    0.907385217043
