14

 H    0.691476642443    4.807602416609    0.000000000000
 H    2.204266642443    4.543002416609    0.907380000000
 H    2.204266642443    4.543002416609   -0.907380000000
 C    1.655016642443    4.273192416609    0.000000000000
 S    1.160786642443    2.493572416609    0.000000000000
 H    2.388786642443    1.937012416609    0.000000000000
RB    0.404516642443    0.868972416609    2.741440000000
RB    0.404516642443    0.868972416609   -2.741440000000
 S   -2.591863058684   -5.567774330520    0.000000000000
 H   -3.819865981023   -5.011213533905    0.000000000000
 C   -3.086090405185   -7.347391567701    0.000000000000
 H   -2.122557521731   -7.881797460823    0.000000000000
 H   -3.635341076040   -7.617199964450   -0.907385217043
 H   -3.635341076040   -7.617199964450    0.907385217043
