14

 H    0.699097532903    4.823973419877    0.000000000000
 H    2.211887532903    4.559373419877    0.907380000000
 H    2.211887532903    4.559373419877   -0.907380000000
 C    1.662637532903    4.289563419877    0.000000000000
 S    1.168407532903    2.509943419877    0.000000000000
 H    2.396407532903    1.953383419877    0.000000000000
RB    0.412137532903    0.885343419877    2.741440000000
RB    0.412137532903    0.885343419877   -2.741440000000
 S   -2.626444699226   -5.642061732141    0.000000000000
 H   -3.854447621564   -5.085500935526    0.000000000000
 C   -3.120672045726   -7.421678969322    0.000000000000
 H   -2.157139162273   -7.956084862444    0.000000000000
 H   -3.669922716581   -7.691487366071   -0.907385217043
 H   -3.669922716581   -7.691487366071    0.907385217043
