14

 H    0.706718423363    4.840344423146    0.000000000000
 H    2.219508423363    4.575744423146    0.907380000000
 H    2.219508423363    4.575744423146   -0.907380000000
 C    1.670258423363    4.305934423146    0.000000000000
 S    1.176028423363    2.526314423146    0.000000000000
 H    2.404028423363    1.969754423146    0.000000000000
RB    0.419758423363    0.901714423146    2.741440000000
RB    0.419758423363    0.901714423146   -2.741440000000
 S   -2.661026339767   -5.716349133761    0.000000000000
 H   -3.889029262106   -5.159788337147    0.000000000000
 C   -3.155253686268   -7.495966370942    0.000000000000
 H   -2.191720802814   -8.030372264065    0.000000000000
 H   -3.704504357123   -7.765774767691   -0.907385217043
 H   -3.704504357123   -7.765774767691    0.907385217043
