14

 H    0.721960204284    4.873086429683    0.000000000000
 H    2.234750204284    4.608486429683    0.907380000000
 H    2.234750204284    4.608486429683   -0.907380000000
 C    1.685500204284    4.338676429683    0.000000000000
 S    1.191270204284    2.559056429683    0.000000000000
 H    2.419270204284    2.002496429683    0.000000000000
RB    0.435000204284    0.934456429683    2.741440000000
RB    0.435000204284    0.934456429683   -2.741440000000
 S   -2.730189620850   -5.864923937003    0.000000000000
 H   -3.958192543189   -5.308363140388    0.000000000000
 C   -3.224416967351   -7.644541174184    0.000000000000
 H   -2.260884083897   -8.178947067306    0.000000000000
 H   -3.773667638206   -7.914349570933   -0.907385217043
 H   -3.773667638206   -7.914349570933    0.907385217043
