14

 H    0.752443766125    4.938570442756    0.000000000000
 H    2.265233766125    4.673970442756    0.907380000000
 H    2.265233766125    4.673970442756   -0.907380000000
 C    1.715983766125    4.404160442756    0.000000000000
 S    1.221753766125    2.624540442756    0.000000000000
 H    2.449753766125    2.067980442756    0.000000000000
RB    0.465483766125    0.999940442756    2.741440000000
RB    0.465483766125    0.999940442756   -2.741440000000
 S   -2.868516183016   -6.162073543486    0.000000000000
 H   -4.096519105355   -5.605512746871    0.000000000000
 C   -3.362743529516   -7.941690780667    0.000000000000
 H   -2.399210646063   -8.476096673789    0.000000000000
 H   -3.911994200371   -8.211499177416   -0.907385217043
 H   -3.911994200371   -8.211499177416    0.907385217043
