14

 H    0.760064656585    4.954941446025    0.000000000000
 H    2.272854656585    4.690341446025    0.907380000000
 H    2.272854656585    4.690341446025   -0.907380000000
 C    1.723604656585    4.420531446025    0.000000000000
 S    1.229374656585    2.640911446025    0.000000000000
 H    2.457374656585    2.084351446025    0.000000000000
RB    0.473104656585    1.016311446025    2.741440000000
RB    0.473104656585    1.016311446025   -2.741440000000
 S   -2.903097823558   -6.236360945106    0.000000000000
 H   -4.131100745896   -5.679800148492    0.000000000000
 C   -3.397325170058   -8.015978182287    0.000000000000
 H   -2.433792286604   -8.550384075409    0.000000000000
 H   -3.946575840913   -8.285786579036   -0.907385217043
 H   -3.946575840913   -8.285786579036    0.907385217043
