14

 H    0.767685547046    4.971312449293    0.000000000000
 H    2.280475547046    4.706712449293    0.907380000000
 H    2.280475547046    4.706712449293   -0.907380000000
 C    1.731225547046    4.436902449293    0.000000000000
 S    1.236995547046    2.657282449293    0.000000000000
 H    2.464995547046    2.100722449293    0.000000000000
RB    0.480725547046    1.032682449293    2.741440000000
RB    0.480725547046    1.032682449293   -2.741440000000
 S   -2.937679464099   -6.310648346727    0.000000000000
 H   -4.165682386438   -5.754087550112    0.000000000000
 C   -3.431906810599   -8.090265583908    0.000000000000
 H   -2.468373927146   -8.624671477030    0.000000000000
 H   -3.981157481454   -8.360073980657   -0.907385217043
 H   -3.981157481454   -8.360073980657    0.907385217043
