14

 H    0.798169108887    5.036796462367    0.000000000000
 H    2.310959108887    4.772196462367    0.907380000000
 H    2.310959108887    4.772196462367   -0.907380000000
 C    1.761709108887    4.502386462367    0.000000000000
 S    1.267479108887    2.722766462367    0.000000000000
 H    2.495479108887    2.166206462367    0.000000000000
RB    0.511209108887    1.098166462367    2.741440000000
RB    0.511209108887    1.098166462367   -2.741440000000
 S   -3.076006026265   -6.607797953210    0.000000000000
 H   -4.304008948604   -6.051237156595    0.000000000000
 C   -3.570233372765   -8.387415190391    0.000000000000
 H   -2.606700489312   -8.921821083513    0.000000000000
 H   -4.119484043620   -8.657223587140   -0.907385217043
 H   -4.119484043620   -8.657223587140    0.907385217043
