14

 H    0.828652670728    5.102280475441    0.000000000000
 H    2.341442670728    4.837680475441    0.907380000000
 H    2.341442670728    4.837680475441   -0.907380000000
 C    1.792192670728    4.567870475441    0.000000000000
 S    1.297962670728    2.788250475441    0.000000000000
 H    2.525962670728    2.231690475441    0.000000000000
RB    0.541692670728    1.163650475441    2.741440000000
RB    0.541692670728    1.163650475441   -2.741440000000
 S   -3.214332588431   -6.904947559693    0.000000000000
 H   -4.442335510770   -6.348386763078    0.000000000000
 C   -3.708559934931   -8.684564796874    0.000000000000
 H   -2.745027051478   -9.218970689996    0.000000000000
 H   -4.257810605786   -8.954373193623   -0.907385217043
 H   -4.257810605786   -8.954373193623    0.907385217043
