14

 H    0.843894451649    5.135022481978    0.000000000000
 H    2.356684451649    4.870422481978    0.907380000000
 H    2.356684451649    4.870422481978   -0.907380000000
 C    1.807434451649    4.600612481978    0.000000000000
 S    1.313204451649    2.820992481978    0.000000000000
 H    2.541204451649    2.264432481978    0.000000000000
RB    0.556934451649    1.196392481978    2.741440000000
RB    0.556934451649    1.196392481978   -2.741440000000
 S   -3.283495869514   -7.053522362934    0.000000000000
 H   -4.511498791853   -6.496961566319    0.000000000000
 C   -3.777723216014   -8.833139600115    0.000000000000
 H   -2.814190332561   -9.367545493237    0.000000000000
 H   -4.326973886869   -9.102947996864   -0.907385217043
 H   -4.326973886869   -9.102947996864    0.907385217043
