14

 H    0.874378013490    5.200506495051    0.000000000000
 H    2.387168013490    4.935906495051    0.907380000000
 H    2.387168013490    4.935906495051   -0.907380000000
 C    1.837918013490    4.666096495051    0.000000000000
 S    1.343688013490    2.886476495051    0.000000000000
 H    2.571688013490    2.329916495051    0.000000000000
RB    0.587418013490    1.261876495051    2.741440000000
RB    0.587418013490    1.261876495051   -2.741440000000
 S   -3.421822431680   -7.350671969417    0.000000000000
 H   -4.649825354018   -6.794111172802    0.000000000000
 C   -3.916049778180   -9.130289206598    0.000000000000
 H   -2.952516894727   -9.664695099720    0.000000000000
 H   -4.465300449035   -9.400097603347   -0.907385217043
 H   -4.465300449035   -9.400097603347    0.907385217043
