14

 C    1.108361289160   -3.677051945093    0.000000000000
 H    1.116083289160   -4.770226945093    0.000000000000
 C    2.318837289160   -2.957212945093    0.000000000000
 H    3.273856289160   -3.490911945093    0.000000000000
 C   -0.111462710840   -2.977045945093    0.000000000000
 H   -1.059594710840   -3.522857945093    0.000000000000
 C    2.316429289160   -1.552067945093    0.000000000000
 H    3.247783289160   -0.979528945093    0.000000000000
 C   -0.125313710840   -1.569564945093    0.000000000000
 H   -1.077312710840   -1.026843945093    0.000000000000
 C    1.090963289160   -0.861782945093    0.000000000000
 O    1.151510289160    0.518678054907    0.000000000000
 H    0.248379289160    0.867105054907    0.000000000000
CS   -0.777893355177    1.263039973151    0.000000000000
