14

 C    1.162998410782   -3.698130889759    0.000000000000
 H    1.170720410782   -4.791305889759    0.000000000000
 C    2.373474410782   -2.978291889759    0.000000000000
 H    3.328493410782   -3.511990889759    0.000000000000
 C   -0.056825589218   -2.998124889759    0.000000000000
 H   -1.004957589218   -3.543936889759    0.000000000000
 C    2.371066410782   -1.573146889759    0.000000000000
 H    3.302420410782   -1.000607889759    0.000000000000
 C   -0.070676589218   -1.590643889759    0.000000000000
 H   -1.022675589218   -1.047922889759    0.000000000000
 C    1.145600410782   -0.882861889759    0.000000000000
 O    1.206147410782    0.497599110241    0.000000000000
 H    0.303016410782    0.846026110241    0.000000000000
CS   -0.816553746677    1.277955111962    0.000000000000
