14

 C    1.326909775646   -3.761367723757    0.000000000000
 H    1.334631775646   -4.854542723757    0.000000000000
 C    2.537385775646   -3.041528723757    0.000000000000
 H    3.492404775646   -3.575227723757    0.000000000000
 C    0.107085775646   -3.061361723757    0.000000000000
 H   -0.841046224354   -3.607173723757    0.000000000000
 C    2.534977775646   -1.636383723757    0.000000000000
 H    3.466331775646   -1.063844723757    0.000000000000
 C    0.093234775646   -1.653880723757    0.000000000000
 H   -0.858764224354   -1.111159723757    0.000000000000
 C    1.309511775646   -0.946098723757    0.000000000000
 O    1.370058775646    0.434362276243    0.000000000000
 H    0.466927775646    0.782789276243    0.000000000000
CS   -0.932534921177    1.322700528394    0.000000000000
