14

 C    1.490821140511   -3.824604557755    0.000000000000
 H    1.498543140511   -4.917779557755    0.000000000000
 C    2.701297140511   -3.104765557755    0.000000000000
 H    3.656316140511   -3.638464557755    0.000000000000
 C    0.270997140511   -3.124598557755    0.000000000000
 H   -0.677134859489   -3.670410557755    0.000000000000
 C    2.698889140511   -1.699620557755    0.000000000000
 H    3.630243140511   -1.127081557755    0.000000000000
 C    0.257146140511   -1.717117557755    0.000000000000
 H   -0.694852859489   -1.174396557755    0.000000000000
 C    1.473423140511   -1.009335557755    0.000000000000
 O    1.533970140511    0.371125442245    0.000000000000
 H    0.630839140511    0.719552442245    0.000000000000
CS   -1.048516095677    1.367445944826    0.000000000000
