14

 C    1.764006748619   -3.929999281086    0.000000000000
 H    1.771728748619   -5.023174281086    0.000000000000
 C    2.974482748619   -3.210160281086    0.000000000000
 H    3.929501748619   -3.743859281086    0.000000000000
 C    0.544182748619   -3.229993281086    0.000000000000
 H   -0.403949251381   -3.775805281086    0.000000000000
 C    2.972074748619   -1.805015281086    0.000000000000
 H    3.903428748619   -1.232476281086    0.000000000000
 C    0.530331748619   -1.822512281086    0.000000000000
 H   -0.421667251381   -1.279791281086    0.000000000000
 C    1.746608748619   -1.114730281086    0.000000000000
 O    1.807155748619    0.265730718914    0.000000000000
 H    0.904024748619    0.614157718914    0.000000000000
CS   -1.241818053178    1.442021638879    0.000000000000
