14

 C    1.818643870240   -3.951078225752    0.000000000000
 H    1.826365870240   -5.044253225752    0.000000000000
 C    3.029119870240   -3.231239225752    0.000000000000
 H    3.984138870240   -3.764938225752    0.000000000000
 C    0.598819870240   -3.251072225752    0.000000000000
 H   -0.349312129760   -3.796884225752    0.000000000000
 C    3.026711870240   -1.826094225752    0.000000000000
 H    3.958065870240   -1.253555225752    0.000000000000
 C    0.584968870240   -1.843591225752    0.000000000000
 H   -0.367030129760   -1.300870225752    0.000000000000
 C    1.801245870240   -1.135809225752    0.000000000000
 O    1.861792870240    0.244651774248    0.000000000000
 H    0.958661870240    0.593078774248    0.000000000000
CS   -1.280478444678    1.456936777690    0.000000000000
