14

 C    1.982555235105   -4.014315059750    0.000000000000
 H    1.990277235105   -5.107490059750    0.000000000000
 C    3.193031235105   -3.294476059750    0.000000000000
 H    4.148050235105   -3.828175059750    0.000000000000
 C    0.762731235105   -3.314309059750    0.000000000000
 H   -0.185400764895   -3.860121059750    0.000000000000
 C    3.190623235105   -1.889331059750    0.000000000000
 H    4.121977235105   -1.316792059750    0.000000000000
 C    0.748880235105   -1.906828059750    0.000000000000
 H   -0.203118764895   -1.364107059750    0.000000000000
 C    1.965157235105   -1.199046059750    0.000000000000
 O    2.025704235105    0.181414940250    0.000000000000
 H    1.122573235105    0.529841940250    0.000000000000
CS   -1.396459619178    1.501682194121    0.000000000000
