14

 C    2.583563572942   -4.246183451077    0.000000000000
 H    2.591285572942   -5.339358451077    0.000000000000
 C    3.794039572942   -3.526344451077    0.000000000000
 H    4.749058572942   -4.060043451077    0.000000000000
 C    1.363739572942   -3.546177451077    0.000000000000
 H    0.415607572942   -4.091989451077    0.000000000000
 C    3.791631572942   -2.121199451077    0.000000000000
 H    4.722985572942   -1.548660451077    0.000000000000
 C    1.349888572942   -2.138696451077    0.000000000000
 H    0.397889572942   -1.595975451077    0.000000000000
 C    2.566165572942   -1.430914451077    0.000000000000
 O    2.626712572942   -0.050453451077    0.000000000000
 H    1.723581572942    0.297973548923    0.000000000000
CS   -1.821723925678    1.665748721038    0.000000000000
