14

 C    2.747474937806   -4.309420285075    0.000000000000
 H    2.755196937806   -5.402595285075    0.000000000000
 C    3.957950937806   -3.589581285075    0.000000000000
 H    4.912969937806   -4.123280285075    0.000000000000
 C    1.527650937806   -3.609414285075    0.000000000000
 H    0.579518937806   -4.155226285075    0.000000000000
 C    3.955542937806   -2.184436285075    0.000000000000
 H    4.886896937806   -1.611897285075    0.000000000000
 C    1.513799937806   -2.201933285075    0.000000000000
 H    0.561800937806   -1.659212285075    0.000000000000
 C    2.730076937806   -1.494151285075    0.000000000000
 O    2.790623937806   -0.113690285075    0.000000000000
 H    1.887492937806    0.234736714925    0.000000000000
CS   -1.937705100178    1.710494137470    0.000000000000
