14

 C    3.075297667536   -4.435893953072    0.000000000000
 H    3.083019667536   -5.529068953072    0.000000000000
 C    4.285773667536   -3.716054953072    0.000000000000
 H    5.240792667536   -4.249753953072    0.000000000000
 C    1.855473667536   -3.735887953072    0.000000000000
 H    0.907341667536   -4.281699953072    0.000000000000
 C    4.283365667536   -2.310909953072    0.000000000000
 H    5.214719667536   -1.738370953072    0.000000000000
 C    1.841622667536   -2.328406953072    0.000000000000
 H    0.889623667536   -1.785685953072    0.000000000000
 C    3.057899667536   -1.620624953072    0.000000000000
 O    3.118446667536   -0.240163953072    0.000000000000
 H    2.215315667536    0.108263046928    0.000000000000
CS   -2.169667449178    1.799984970334    0.000000000000
