14

 C    3.129934789157   -4.456972897738    0.000000000000
 H    3.137656789157   -5.550147897738    0.000000000000
 C    4.340410789157   -3.737133897738    0.000000000000
 H    5.295429789157   -4.270832897738    0.000000000000
 C    1.910110789157   -3.756966897738    0.000000000000
 H    0.961978789157   -4.302778897738    0.000000000000
 C    4.338002789157   -2.331988897738    0.000000000000
 H    5.269356789157   -1.759449897738    0.000000000000
 C    1.896259789157   -2.349485897738    0.000000000000
 H    0.944260789157   -1.806764897738    0.000000000000
 C    3.112536789157   -1.641703897738    0.000000000000
 O    3.173083789157   -0.261242897738    0.000000000000
 H    2.269952789157    0.087184102262    0.000000000000
CS   -2.208327840678    1.814900109145    0.000000000000
