14

 C    3.239209032400   -4.499130787070    0.000000000000
 H    3.246931032400   -5.592305787070    0.000000000000
 C    4.449685032400   -3.779291787070    0.000000000000
 H    5.404704032400   -4.312990787070    0.000000000000
 C    2.019385032400   -3.799124787070    0.000000000000
 H    1.071253032400   -4.344936787070    0.000000000000
 C    4.447277032400   -2.374146787070    0.000000000000
 H    5.378631032400   -1.801607787070    0.000000000000
 C    2.005534032400   -2.391643787070    0.000000000000
 H    1.053535032400   -1.848922787070    0.000000000000
 C    3.221811032400   -1.683861787070    0.000000000000
 O    3.282358032400   -0.303400787070    0.000000000000
 H    2.379227032400    0.045026212930    0.000000000000
CS   -2.285648623679    1.844730386766    0.000000000000
