14

 C    3.293846154022   -4.520209731736    0.000000000000
 H    3.301568154022   -5.613384731736    0.000000000000
 C    4.504322154022   -3.800370731736    0.000000000000
 H    5.459341154022   -4.334069731736    0.000000000000
 C    2.074022154022   -3.820203731736    0.000000000000
 H    1.125890154022   -4.366015731736    0.000000000000
 C    4.501914154022   -2.395225731736    0.000000000000
 H    5.433268154022   -1.822686731736    0.000000000000
 C    2.060171154022   -2.412722731736    0.000000000000
 H    1.108172154022   -1.870001731736    0.000000000000
 C    3.276448154022   -1.704940731736    0.000000000000
 O    3.336995154022   -0.324479731736    0.000000000000
 H    2.433864154022    0.023947268264    0.000000000000
CS   -2.324309015179    1.859645525577    0.000000000000
