14

 C    3.403120397265   -4.562367621068    0.000000000000
 H    3.410842397265   -5.655542621068    0.000000000000
 C    4.613596397265   -3.842528621068    0.000000000000
 H    5.568615397265   -4.376227621068    0.000000000000
 C    2.183296397265   -3.862361621068    0.000000000000
 H    1.235164397265   -4.408173621068    0.000000000000
 C    4.611188397265   -2.437383621068    0.000000000000
 H    5.542542397265   -1.864844621068    0.000000000000
 C    2.169445397265   -2.454880621068    0.000000000000
 H    1.217446397265   -1.912159621068    0.000000000000
 C    3.385722397265   -1.747098621068    0.000000000000
 O    3.446269397265   -0.366637621068    0.000000000000
 H    2.543138397265   -0.018210621068    0.000000000000
CS   -2.401629798179    1.889475803198    0.000000000000
