14

 C    3.676306005373   -4.667762344399    0.000000000000
 H    3.684028005373   -5.760937344399    0.000000000000
 C    4.886782005373   -3.947923344399    0.000000000000
 H    5.841801005373   -4.481622344399    0.000000000000
 C    2.456482005373   -3.967756344399    0.000000000000
 H    1.508350005373   -4.513568344399    0.000000000000
 C    4.884374005373   -2.542778344399    0.000000000000
 H    5.815728005373   -1.970239344399    0.000000000000
 C    2.442631005373   -2.560275344399    0.000000000000
 H    1.490632005373   -2.017554344399    0.000000000000
 C    3.658908005373   -1.852493344399    0.000000000000
 O    3.719455005373   -0.472032344399    0.000000000000
 H    2.816324005373   -0.123605344399    0.000000000000
CS   -2.594931755679    1.964051497251    0.000000000000
