14

 C    3.949491613480   -4.773157067729    0.000000000000
 H    3.957213613480   -5.866332067729    0.000000000000
 C    5.159967613480   -4.053318067729    0.000000000000
 H    6.114986613480   -4.587017067729    0.000000000000
 C    2.729667613480   -4.073151067729    0.000000000000
 H    1.781535613480   -4.618963067729    0.000000000000
 C    5.157559613480   -2.648173067729    0.000000000000
 H    6.088913613480   -2.075634067729    0.000000000000
 C    2.715816613480   -2.665670067729    0.000000000000
 H    1.763817613480   -2.122949067729    0.000000000000
 C    3.932093613480   -1.957888067729    0.000000000000
 O    3.992640613480   -0.577427067729    0.000000000000
 H    3.089509613480   -0.229000067729    0.000000000000
CS   -2.788233713179    2.038627191304    0.000000000000
