14

 C    4.004128735102   -4.794236012395    0.000000000000
 H    4.011850735102   -5.887411012395    0.000000000000
 C    5.214604735102   -4.074397012395    0.000000000000
 H    6.169623735102   -4.608096012395    0.000000000000
 C    2.784304735102   -4.094230012395    0.000000000000
 H    1.836172735102   -4.640042012395    0.000000000000
 C    5.212196735102   -2.669252012395    0.000000000000
 H    6.143550735102   -2.096713012395    0.000000000000
 C    2.770453735102   -2.686749012395    0.000000000000
 H    1.818454735102   -2.144028012395    0.000000000000
 C    3.986730735102   -1.978967012395    0.000000000000
 O    4.047277735102   -0.598506012395    0.000000000000
 H    3.144146735102   -0.250079012395    0.000000000000
CS   -2.826894104679    2.053542330115    0.000000000000
