14

 C    4.168040099967   -4.857472846393    0.000000000000
 H    4.175762099967   -5.950647846393    0.000000000000
 C    5.378516099967   -4.137633846393    0.000000000000
 H    6.333535099967   -4.671332846393    0.000000000000
 C    2.948216099967   -4.157466846393    0.000000000000
 H    2.000084099967   -4.703278846393    0.000000000000
 C    5.376108099967   -2.732488846393    0.000000000000
 H    6.307462099967   -2.159949846393    0.000000000000
 C    2.934365099967   -2.749985846393    0.000000000000
 H    1.982366099967   -2.207264846393    0.000000000000
 C    4.150642099967   -2.042203846393    0.000000000000
 O    4.211189099967   -0.661742846393    0.000000000000
 H    3.308058099967   -0.313315846393    0.000000000000
CS   -2.942875279179    2.098287746547    0.000000000000
