14

 C    4.222677221588   -4.878551791060    0.000000000000
 H    4.230399221588   -5.971726791060    0.000000000000
 C    5.433153221588   -4.158712791060    0.000000000000
 H    6.388172221588   -4.692411791060    0.000000000000
 C    3.002853221588   -4.178545791060    0.000000000000
 H    2.054721221588   -4.724357791060    0.000000000000
 C    5.430745221588   -2.753567791060    0.000000000000
 H    6.362099221588   -2.181028791060    0.000000000000
 C    2.989002221588   -2.771064791060    0.000000000000
 H    2.037003221588   -2.228343791060    0.000000000000
 C    4.205279221588   -2.063282791060    0.000000000000
 O    4.265826221588   -0.682821791060    0.000000000000
 H    3.362695221588   -0.334394791060    0.000000000000
CS   -2.981535670679    2.113202885357    0.000000000000
