14

 C    4.550499951317   -5.005025459056    0.000000000000
 H    4.558221951317   -6.098200459056    0.000000000000
 C    5.760975951317   -4.285186459056    0.000000000000
 H    6.715994951317   -4.818885459056    0.000000000000
 C    3.330675951317   -4.305019459056    0.000000000000
 H    2.382543951317   -4.850831459056    0.000000000000
 C    5.758567951317   -2.880041459056    0.000000000000
 H    6.689921951317   -2.307502459056    0.000000000000
 C    3.316824951317   -2.897538459056    0.000000000000
 H    2.364825951317   -2.354817459056    0.000000000000
 C    4.533101951317   -2.189756459056    0.000000000000
 O    4.593648951317   -0.809295459056    0.000000000000
 H    3.690517951317   -0.460868459056    0.000000000000
CS   -3.213498019679    2.202693718221    0.000000000000
