14

 C    4.605137072939   -5.026104403722    0.000000000000
 H    4.612859072939   -6.119279403722    0.000000000000
 C    5.815613072939   -4.306265403722    0.000000000000
 H    6.770632072939   -4.839964403722    0.000000000000
 C    3.385313072939   -4.326098403722    0.000000000000
 H    2.437181072939   -4.871910403722    0.000000000000
 C    5.813205072939   -2.901120403722    0.000000000000
 H    6.744559072939   -2.328581403722    0.000000000000
 C    3.371462072939   -2.918617403722    0.000000000000
 H    2.419463072939   -2.375896403722    0.000000000000
 C    4.587739072939   -2.210835403722    0.000000000000
 O    4.648286072939   -0.830374403722    0.000000000000
 H    3.745155072939   -0.481947403722    0.000000000000
CS   -3.252158411179    2.217608857032    0.000000000000
