14

 C    4.659774194560   -5.047183348388    0.000000000000
 H    4.667496194560   -6.140358348388    0.000000000000
 C    5.870250194560   -4.327344348388    0.000000000000
 H    6.825269194560   -4.861043348388    0.000000000000
 C    3.439950194560   -4.347177348388    0.000000000000
 H    2.491818194560   -4.892989348388    0.000000000000
 C    5.867842194560   -2.922199348388    0.000000000000
 H    6.799196194560   -2.349660348388    0.000000000000
 C    3.426099194560   -2.939696348388    0.000000000000
 H    2.474100194560   -2.396975348388    0.000000000000
 C    4.642376194560   -2.231914348388    0.000000000000
 O    4.702923194560   -0.851453348388    0.000000000000
 H    3.799792194560   -0.503026348388    0.000000000000
CS   -3.290818802680    2.232523995842    0.000000000000
