14

 C    4.714411316182   -5.068262293054    0.000000000000
 H    4.722133316182   -6.161437293054    0.000000000000
 C    5.924887316182   -4.348423293054    0.000000000000
 H    6.879906316182   -4.882122293054    0.000000000000
 C    3.494587316182   -4.368256293054    0.000000000000
 H    2.546455316182   -4.914068293054    0.000000000000
 C    5.922479316182   -2.943278293054    0.000000000000
 H    6.853833316182   -2.370739293054    0.000000000000
 C    3.480736316182   -2.960775293054    0.000000000000
 H    2.528737316182   -2.418054293054    0.000000000000
 C    4.697013316182   -2.252993293054    0.000000000000
 O    4.757560316182   -0.872532293054    0.000000000000
 H    3.854429316182   -0.524105293054    0.000000000000
CS   -3.329479194180    2.247439134653    0.000000000000
