14

 C    4.823685559425   -5.110420182387    0.000000000000
 H    4.831407559425   -6.203595182387    0.000000000000
 C    6.034161559425   -4.390581182387    0.000000000000
 H    6.989180559425   -4.924280182387    0.000000000000
 C    3.603861559425   -4.410414182387    0.000000000000
 H    2.655729559425   -4.956226182387    0.000000000000
 C    6.031753559425   -2.985436182387    0.000000000000
 H    6.963107559425   -2.412897182387    0.000000000000
 C    3.590010559425   -3.002933182387    0.000000000000
 H    2.638011559425   -2.460212182387    0.000000000000
 C    4.806287559425   -2.295151182387    0.000000000000
 O    4.866834559425   -0.914690182387    0.000000000000
 H    3.963703559425   -0.566263182387    0.000000000000
CS   -3.406799977180    2.277269412274    0.000000000000
