14

 C    4.878322681047   -5.131499127053    0.000000000000
 H    4.886044681047   -6.224674127053    0.000000000000
 C    6.088798681047   -4.411660127053    0.000000000000
 H    7.043817681047   -4.945359127053    0.000000000000
 C    3.658498681047   -4.431493127053    0.000000000000
 H    2.710366681047   -4.977305127053    0.000000000000
 C    6.086390681047   -3.006515127053    0.000000000000
 H    7.017744681047   -2.433976127053    0.000000000000
 C    3.644647681047   -3.024012127053    0.000000000000
 H    2.692648681047   -2.481291127053    0.000000000000
 C    4.860924681047   -2.316230127053    0.000000000000
 O    4.921471681047   -0.935769127053    0.000000000000
 H    4.018340681047   -0.587342127053    0.000000000000
CS   -3.445460368680    2.292184551085    0.000000000000
