14

 C    5.151508289154   -5.236893850383    0.000000000000
 H    5.159230289154   -6.330068850383    0.000000000000
 C    6.361984289154   -4.517054850383    0.000000000000
 H    7.317003289154   -5.050753850383    0.000000000000
 C    3.931684289154   -4.536887850383    0.000000000000
 H    2.983552289154   -5.082699850383    0.000000000000
 C    6.359576289154   -3.111909850383    0.000000000000
 H    7.290930289154   -2.539370850383    0.000000000000
 C    3.917833289154   -3.129406850383    0.000000000000
 H    2.965834289154   -2.586685850383    0.000000000000
 C    5.134110289154   -2.421624850383    0.000000000000
 O    5.194657289154   -1.041163850383    0.000000000000
 H    4.291526289154   -0.692736850383    0.000000000000
CS   -3.638762326180    2.366760245138    0.000000000000
