14

 C    5.206145410776   -5.257972795049    0.000000000000
 H    5.213867410776   -6.351147795049    0.000000000000
 C    6.416621410776   -4.538133795049    0.000000000000
 H    7.371640410776   -5.071832795049    0.000000000000
 C    3.986321410776   -4.557966795049    0.000000000000
 H    3.038189410776   -5.103778795049    0.000000000000
 C    6.414213410776   -3.132988795049    0.000000000000
 H    7.345567410776   -2.560449795049    0.000000000000
 C    3.972470410776   -3.150485795049    0.000000000000
 H    3.020471410776   -2.607764795049    0.000000000000
 C    5.188747410776   -2.442703795049    0.000000000000
 O    5.249294410776   -1.062242795049    0.000000000000
 H    4.346163410776   -0.713815795049    0.000000000000
CS   -3.677422717680    2.381675383949    0.000000000000
