14

 C    5.260782532397   -5.279051739715    0.000000000000
 H    5.268504532397   -6.372226739715    0.000000000000
 C    6.471258532397   -4.559212739715    0.000000000000
 H    7.426277532397   -5.092911739715    0.000000000000
 C    4.040958532397   -4.579045739715    0.000000000000
 H    3.092826532397   -5.124857739715    0.000000000000
 C    6.468850532397   -3.154067739715    0.000000000000
 H    7.400204532397   -2.581528739715    0.000000000000
 C    4.027107532397   -3.171564739715    0.000000000000
 H    3.075108532397   -2.628843739715    0.000000000000
 C    5.243384532397   -2.463782739715    0.000000000000
 O    5.303931532397   -1.083321739715    0.000000000000
 H    4.400800532397   -0.734894739715    0.000000000000
CS   -3.716083109180    2.396590522759    0.000000000000
