14

 C    5.370056775640   -5.321209629047    0.000000000000
 H    5.377778775640   -6.414384629047    0.000000000000
 C    6.580532775640   -4.601370629047    0.000000000000
 H    7.535551775640   -5.135069629047    0.000000000000
 C    4.150232775640   -4.621203629047    0.000000000000
 H    3.202100775640   -5.167015629047    0.000000000000
 C    6.578124775640   -3.196225629047    0.000000000000
 H    7.509478775640   -2.623686629047    0.000000000000
 C    4.136381775640   -3.213722629047    0.000000000000
 H    3.184382775640   -2.671001629047    0.000000000000
 C    5.352658775640   -2.505940629047    0.000000000000
 O    5.413205775640   -1.125479629047    0.000000000000
 H    4.510074775640   -0.777052629047    0.000000000000
CS   -3.793403892180    2.426420800381    0.000000000000
