14

 C    5.479331018884   -5.363367518380    0.000000000000
 H    5.487053018884   -6.456542518380    0.000000000000
 C    6.689807018884   -4.643528518380    0.000000000000
 H    7.644826018884   -5.177227518380    0.000000000000
 C    4.259507018884   -4.663361518380    0.000000000000
 H    3.311375018884   -5.209173518380    0.000000000000
 C    6.687399018884   -3.238383518380    0.000000000000
 H    7.618753018884   -2.665844518380    0.000000000000
 C    4.245656018884   -3.255880518380    0.000000000000
 H    3.293657018884   -2.713159518380    0.000000000000
 C    5.461933018884   -2.548098518380    0.000000000000
 O    5.522480018884   -1.167637518380    0.000000000000
 H    4.619349018884   -0.819210518380    0.000000000000
CS   -3.870724675180    2.456251078002    0.000000000000
