14

 C    5.643242383748   -5.426604352378    0.000000000000
 H    5.650964383748   -6.519779352378    0.000000000000
 C    6.853718383748   -4.706765352378    0.000000000000
 H    7.808737383748   -5.240464352378    0.000000000000
 C    4.423418383748   -4.726598352378    0.000000000000
 H    3.475286383748   -5.272410352378    0.000000000000
 C    6.851310383748   -3.301620352378    0.000000000000
 H    7.782664383748   -2.729081352378    0.000000000000
 C    4.409567383748   -3.319117352378    0.000000000000
 H    3.457568383748   -2.776396352378    0.000000000000
 C    5.625844383748   -2.611335352378    0.000000000000
 O    5.686391383748   -1.230874352378    0.000000000000
 H    4.783260383748   -0.882447352378    0.000000000000
CS   -3.986705849680    2.500996494434    0.000000000000
