14

 C    5.697879505370   -5.447683297044    0.000000000000
 H    5.705601505370   -6.540858297044    0.000000000000
 C    6.908355505370   -4.727844297044    0.000000000000
 H    7.863374505370   -5.261543297044    0.000000000000
 C    4.478055505370   -4.747677297044    0.000000000000
 H    3.529923505370   -5.293489297044    0.000000000000
 C    6.905947505370   -3.322699297044    0.000000000000
 H    7.837301505370   -2.750160297044    0.000000000000
 C    4.464204505370   -3.340196297044    0.000000000000
 H    3.512205505370   -2.797475297044    0.000000000000
 C    5.680481505370   -2.632414297044    0.000000000000
 O    5.741028505370   -1.251953297044    0.000000000000
 H    4.837897505370   -0.903526297044    0.000000000000
CS   -4.025366241180    2.515911633244    0.000000000000
