26

 C    2.619315340212    1.226565774898    0.701720000000
 H    2.715875340212    2.157745774898    1.266840000000
 C    2.619315340212    1.226565774898   -0.701720000000
 H    2.715875340212    2.157745774898   -1.266840000000
 C    2.533255340212    0.005255774898    1.393560000000
 H    2.514895340212    0.005795774898    2.488430000000
 C    2.533255340212    0.005255774898   -1.393560000000
 H    2.514895340212    0.005795774898   -2.488430000000
 C    2.630985340212   -1.214924225102    0.701560000000
 H    2.736425340212   -2.145074225102    1.267200000000
 C    2.630985340212   -1.214924225102   -0.701560000000
 H    2.736425340212   -2.145074225102   -1.267200000000
RB   -0.211214659788    3.050595774898    0.000000000000
RB   -0.187574659788   -3.051424225102    0.000000000000
 C   -2.185447432423   -1.225659496132   -0.701715247864
 H   -2.282017522335   -2.156839399491   -1.266838416487
 C   -2.185447432423   -1.225659496132    0.701715247864
 H   -2.282017522335   -2.156839399491    1.266838416487
 C   -2.099390578134   -0.004352533224   -1.393560000000
 H   -2.081029758607   -0.004897423947   -2.488435921874
 C   -2.099390578134   -0.004352533224    1.393560000000
 H   -2.081029758607   -0.004897423947    2.488435921874
 C   -2.197119821394    1.215818819353   -0.701558994141
 H   -2.302554593273    2.145971573415   -1.267195516911
 C   -2.197119821394    1.215818819353    0.701558994141
 H   -2.302554593273    2.145971573415    1.267195516911
