26

 C    2.739049302568    1.226813959240    0.701720000000
 H    2.835609302568    2.157993959240    1.266840000000
 C    2.739049302568    1.226813959240   -0.701720000000
 H    2.835609302568    2.157993959240   -1.266840000000
 C    2.652989302568    0.005503959240    1.393560000000
 H    2.634629302568    0.006043959240    2.488430000000
 C    2.652989302568    0.005503959240   -1.393560000000
 H    2.634629302568    0.006043959240   -2.488430000000
 C    2.750719302568   -1.214676040760    0.701560000000
 H    2.856159302568   -2.144826040760    1.267200000000
 C    2.750719302568   -1.214676040760   -0.701560000000
 H    2.856159302568   -2.144826040760   -1.267200000000
RB   -0.091480697432    3.050843959240    0.000000000000
RB   -0.067840697432   -3.051176040760    0.000000000000
 C   -2.565712395947   -1.226447708664   -0.701715247864
 H   -2.662282485860   -2.157627612023   -1.266838416487
 C   -2.565712395947   -1.226447708664    0.701715247864
 H   -2.662282485860   -2.157627612023    1.266838416487
 C   -2.479655541658   -0.005140745757   -1.393560000000
 H   -2.461294722132   -0.005685636480   -2.488435921874
 C   -2.479655541658   -0.005140745757    1.393560000000
 H   -2.461294722132   -0.005685636480    2.488435921874
 C   -2.577384784918    1.215030606821   -0.701558994141
 H   -2.682819556797    2.145183360882   -1.267195516911
 C   -2.577384784918    1.215030606821    0.701558994141
 H   -2.682819556797    2.145183360882    1.267195516911
