26

 C    2.762996095039    1.226863596108    0.701720000000
 H    2.859556095039    2.158043596108    1.266840000000
 C    2.762996095039    1.226863596108   -0.701720000000
 H    2.859556095039    2.158043596108   -1.266840000000
 C    2.676936095039    0.005553596108    1.393560000000
 H    2.658576095039    0.006093596108    2.488430000000
 C    2.676936095039    0.005553596108   -1.393560000000
 H    2.658576095039    0.006093596108   -2.488430000000
 C    2.774666095039   -1.214626403892    0.701560000000
 H    2.880106095039   -2.144776403892    1.267200000000
 C    2.774666095039   -1.214626403892   -0.701560000000
 H    2.880106095039   -2.144776403892   -1.267200000000
RB   -0.067533904961    3.050893596108    0.000000000000
RB   -0.043893904961   -3.051126403892    0.000000000000
 C   -2.641765388652   -1.226605351171   -0.701715247864
 H   -2.738335478565   -2.157785254530   -1.266838416487
 C   -2.641765388652   -1.226605351171    0.701715247864
 H   -2.738335478565   -2.157785254530    1.266838416487
 C   -2.555708534363   -0.005298388263   -1.393560000000
 H   -2.537347714837   -0.005843278986   -2.488435921874
 C   -2.555708534363   -0.005298388263    1.393560000000
 H   -2.537347714837   -0.005843278986    2.488435921874
 C   -2.653437777623    1.214872964314   -0.701558994141
 H   -2.758872549502    2.145025718376   -1.267195516911
 C   -2.653437777623    1.214872964314    0.701558994141
 H   -2.758872549502    2.145025718376    1.267195516911
