26

 C    2.954570434808    1.227260691055    0.701720000000
 H    3.051130434808    2.158440691055    1.266840000000
 C    2.954570434808    1.227260691055   -0.701720000000
 H    3.051130434808    2.158440691055   -1.266840000000
 C    2.868510434808    0.005950691055    1.393560000000
 H    2.850150434808    0.006490691055    2.488430000000
 C    2.868510434808    0.005950691055   -1.393560000000
 H    2.850150434808    0.006490691055   -2.488430000000
 C    2.966240434808   -1.214229308945    0.701560000000
 H    3.071680434808   -2.144379308945    1.267200000000
 C    2.966240434808   -1.214229308945   -0.701560000000
 H    3.071680434808   -2.144379308945   -1.267200000000
RB    0.124040434808    3.051290691055    0.000000000000
RB    0.147680434808   -3.050729308945    0.000000000000
 C   -3.250189330292   -1.227866491222   -0.701715247864
 H   -3.346759420204   -2.159046394582   -1.266838416487
 C   -3.250189330292   -1.227866491222    0.701715247864
 H   -3.346759420204   -2.159046394582    1.266838416487
 C   -3.164132476003   -0.006559528315   -1.393560000000
 H   -3.145771656476   -0.007104419038   -2.488435921874
 C   -3.164132476003   -0.006559528315    1.393560000000
 H   -3.145771656476   -0.007104419038    2.488435921874
 C   -3.261861719263    1.213611824262   -0.701558994141
 H   -3.367296491142    2.143764578324   -1.267195516911
 C   -3.261861719263    1.213611824262    0.701558994141
 H   -3.367296491142    2.143764578324    1.267195516911
