26

 C    2.978517227279    1.227310327923    0.701720000000
 H    3.075077227279    2.158490327923    1.266840000000
 C    2.978517227279    1.227310327923   -0.701720000000
 H    3.075077227279    2.158490327923   -1.266840000000
 C    2.892457227279    0.006000327923    1.393560000000
 H    2.874097227279    0.006540327923    2.488430000000
 C    2.892457227279    0.006000327923   -1.393560000000
 H    2.874097227279    0.006540327923   -2.488430000000
 C    2.990187227279   -1.214179672077    0.701560000000
 H    3.095627227279   -2.144329672077    1.267200000000
 C    2.990187227279   -1.214179672077   -0.701560000000
 H    3.095627227279   -2.144329672077   -1.267200000000
RB    0.147987227279    3.051340327923    0.000000000000
RB    0.171627227279   -3.050679672077    0.000000000000
 C   -3.326242322997   -1.228024133729   -0.701715247864
 H   -3.422812412909   -2.159204037088   -1.266838416487
 C   -3.326242322997   -1.228024133729    0.701715247864
 H   -3.422812412909   -2.159204037088    1.266838416487
 C   -3.240185468708   -0.006717170822   -1.393560000000
 H   -3.221824649181   -0.007262061545   -2.488435921874
 C   -3.240185468708   -0.006717170822    1.393560000000
 H   -3.221824649181   -0.007262061545    2.488435921874
 C   -3.337914711968    1.213454181756   -0.701558994141
 H   -3.443349483847    2.143606935817   -1.267195516911
 C   -3.337914711968    1.213454181756    0.701558994141
 H   -3.443349483847    2.143606935817    1.267195516911
