26

 C    3.002464019750    1.227359964792    0.701720000000
 H    3.099024019750    2.158539964792    1.266840000000
 C    3.002464019750    1.227359964792   -0.701720000000
 H    3.099024019750    2.158539964792   -1.266840000000
 C    2.916404019750    0.006049964792    1.393560000000
 H    2.898044019750    0.006589964792    2.488430000000
 C    2.916404019750    0.006049964792   -1.393560000000
 H    2.898044019750    0.006589964792   -2.488430000000
 C    3.014134019750   -1.214130035208    0.701560000000
 H    3.119574019750   -2.144280035208    1.267200000000
 C    3.014134019750   -1.214130035208   -0.701560000000
 H    3.119574019750   -2.144280035208   -1.267200000000
RB    0.171934019750    3.051389964792    0.000000000000
RB    0.195574019750   -3.050630035208    0.000000000000
 C   -3.402295315702   -1.228181776235   -0.701715247864
 H   -3.498865405614   -2.159361679595   -1.266838416487
 C   -3.402295315702   -1.228181776235    0.701715247864
 H   -3.498865405614   -2.159361679595    1.266838416487
 C   -3.316238461412   -0.006874813328   -1.393560000000
 H   -3.297877641886   -0.007419704051   -2.488435921874
 C   -3.316238461412   -0.006874813328    1.393560000000
 H   -3.297877641886   -0.007419704051    2.488435921874
 C   -3.413967704673    1.213296539249   -0.701558994141
 H   -3.519402476552    2.143449293311   -1.267195516911
 C   -3.413967704673    1.213296539249    0.701558994141
 H   -3.519402476552    2.143449293311    1.267195516911
