26

 C    3.026410812221    1.227409601660    0.701720000000
 H    3.122970812221    2.158589601660    1.266840000000
 C    3.026410812221    1.227409601660   -0.701720000000
 H    3.122970812221    2.158589601660   -1.266840000000
 C    2.940350812221    0.006099601660    1.393560000000
 H    2.921990812221    0.006639601660    2.488430000000
 C    2.940350812221    0.006099601660   -1.393560000000
 H    2.921990812221    0.006639601660   -2.488430000000
 C    3.038080812221   -1.214080398340    0.701560000000
 H    3.143520812221   -2.144230398340    1.267200000000
 C    3.038080812221   -1.214080398340   -0.701560000000
 H    3.143520812221   -2.144230398340   -1.267200000000
RB    0.195880812221    3.051439601660    0.000000000000
RB    0.219520812221   -3.050580398340    0.000000000000
 C   -3.478348308406   -1.228339418742   -0.701715247864
 H   -3.574918398319   -2.159519322101   -1.266838416487
 C   -3.478348308406   -1.228339418742    0.701715247864
 H   -3.574918398319   -2.159519322101    1.266838416487
 C   -3.392291454117   -0.007032455835   -1.393560000000
 H   -3.373930634591   -0.007577346558   -2.488435921874
 C   -3.392291454117   -0.007032455835    1.393560000000
 H   -3.373930634591   -0.007577346558    2.488435921874
 C   -3.490020697378    1.213138896743   -0.701558994141
 H   -3.595455469256    2.143291650804   -1.267195516911
 C   -3.490020697378    1.213138896743    0.701558994141
 H   -3.595455469256    2.143291650804    1.267195516911
