26

 C    3.194038359519    1.227757059739    0.701720000000
 H    3.290598359519    2.158937059739    1.266840000000
 C    3.194038359519    1.227757059739   -0.701720000000
 H    3.290598359519    2.158937059739   -1.266840000000
 C    3.107978359519    0.006447059739    1.393560000000
 H    3.089618359519    0.006987059739    2.488430000000
 C    3.107978359519    0.006447059739   -1.393560000000
 H    3.089618359519    0.006987059739   -2.488430000000
 C    3.205708359519   -1.213732940261    0.701560000000
 H    3.311148359519   -2.143882940261    1.267200000000
 C    3.205708359519   -1.213732940261   -0.701560000000
 H    3.311148359519   -2.143882940261   -1.267200000000
RB    0.363508359519    3.051787059739    0.000000000000
RB    0.387148359519   -3.050232940261    0.000000000000
 C   -4.010719257341   -1.229442916287   -0.701715247864
 H   -4.107289347254   -2.160622819647   -1.266838416487
 C   -4.010719257341   -1.229442916287    0.701715247864
 H   -4.107289347254   -2.160622819647    1.266838416487
 C   -3.924662403052   -0.008135953380   -1.393560000000
 H   -3.906301583526   -0.008680844103   -2.488435921874
 C   -3.924662403052   -0.008135953380    1.393560000000
 H   -3.906301583526   -0.008680844103    2.488435921874
 C   -4.022391646312    1.212035399198   -0.701558994141
 H   -4.127826418191    2.142188153259   -1.267195516911
 C   -4.022391646312    1.212035399198    0.701558994141
 H   -4.127826418191    2.142188153259    1.267195516911
