26

 C    3.241931944461    1.227856333475    0.701720000000
 H    3.338491944461    2.159036333475    1.266840000000
 C    3.241931944461    1.227856333475   -0.701720000000
 H    3.338491944461    2.159036333475   -1.266840000000
 C    3.155871944461    0.006546333475    1.393560000000
 H    3.137511944461    0.007086333475    2.488430000000
 C    3.155871944461    0.006546333475   -1.393560000000
 H    3.137511944461    0.007086333475   -2.488430000000
 C    3.253601944461   -1.213633666525    0.701560000000
 H    3.359041944461   -2.143783666525    1.267200000000
 C    3.253601944461   -1.213633666525   -0.701560000000
 H    3.359041944461   -2.143783666525   -1.267200000000
RB    0.411401944461    3.051886333475    0.000000000000
RB    0.435041944461   -3.050133666525    0.000000000000
 C   -4.162825242751   -1.229758201300   -0.701715247864
 H   -4.259395332663   -2.160938104660   -1.266838416487
 C   -4.162825242751   -1.229758201300    0.701715247864
 H   -4.259395332663   -2.160938104660    1.266838416487
 C   -4.076768388462   -0.008451238393   -1.393560000000
 H   -4.058407568935   -0.008996129116   -2.488435921874
 C   -4.076768388462   -0.008451238393    1.393560000000
 H   -4.058407568935   -0.008996129116    2.488435921874
 C   -4.174497631722    1.211720114185   -0.701558994141
 H   -4.279932403601    2.141872868246   -1.267195516911
 C   -4.174497631722    1.211720114185    0.701558994141
 H   -4.279932403601    2.141872868246    1.267195516911
