26

 C    3.481399869173    1.228352702159    0.701720000000
 H    3.577959869173    2.159532702159    1.266840000000
 C    3.481399869173    1.228352702159   -0.701720000000
 H    3.577959869173    2.159532702159   -1.266840000000
 C    3.395339869173    0.007042702159    1.393560000000
 H    3.376979869173    0.007582702159    2.488430000000
 C    3.395339869173    0.007042702159   -1.393560000000
 H    3.376979869173    0.007582702159   -2.488430000000
 C    3.493069869173   -1.213137297841    0.701560000000
 H    3.598509869173   -2.143287297841    1.267200000000
 C    3.493069869173   -1.213137297841   -0.701560000000
 H    3.598509869173   -2.143287297841   -1.267200000000
RB    0.650869869173    3.052382702159    0.000000000000
RB    0.674509869173   -3.049637297841    0.000000000000
 C   -4.923355169800   -1.231334626365   -0.701715247864
 H   -5.019925259713   -2.162514529725   -1.266838416487
 C   -4.923355169800   -1.231334626365    0.701715247864
 H   -5.019925259713   -2.162514529725    1.266838416487
 C   -4.837298315511   -0.010027663458   -1.393560000000
 H   -4.818937495985   -0.010572554181   -2.488435921874
 C   -4.837298315511   -0.010027663458    1.393560000000
 H   -4.818937495985   -0.010572554181    2.488435921874
 C   -4.935027558771    1.210143689120   -0.701558994141
 H   -5.040462330650    2.140296443181   -1.267195516911
 C   -4.935027558771    1.210143689120    0.701558994141
 H   -5.040462330650    2.140296443181    1.267195516911
