26

 C    3.744814586355    1.228898707711    0.701720000000
 H    3.841374586355    2.160078707711    1.266840000000
 C    3.744814586355    1.228898707711   -0.701720000000
 H    3.841374586355    2.160078707711   -1.266840000000
 C    3.658754586355    0.007588707711    1.393560000000
 H    3.640394586355    0.008128707711    2.488430000000
 C    3.658754586355    0.007588707711   -1.393560000000
 H    3.640394586355    0.008128707711   -2.488430000000
 C    3.756484586355   -1.212591292289    0.701560000000
 H    3.861924586355   -2.142741292289    1.267200000000
 C    3.756484586355   -1.212591292289   -0.701560000000
 H    3.861924586355   -2.142741292289   -1.267200000000
RB    0.914284586355    3.052928707711    0.000000000000
RB    0.937924586355   -3.049091292289    0.000000000000
 C   -5.759938089554   -1.233068693937   -0.701715247864
 H   -5.856508179467   -2.164248597296   -1.266838416487
 C   -5.759938089554   -1.233068693937    0.701715247864
 H   -5.856508179467   -2.164248597296    1.266838416487
 C   -5.673881235265   -0.011761731030   -1.393560000000
 H   -5.655520415739   -0.012306621752   -2.488435921874
 C   -5.673881235265   -0.011761731030    1.393560000000
 H   -5.655520415739   -0.012306621752    2.488435921874
 C   -5.771610478526    1.208409621548   -0.701558994141
 H   -5.877045250404    2.138562375610   -1.267195516911
 C   -5.771610478526    1.208409621548    0.701558994141
 H   -5.877045250404    2.138562375610    1.267195516911
