26

 C    3.840601756240    1.229097255184    0.701720000000
 H    3.937161756240    2.160277255184    1.266840000000
 C    3.840601756240    1.229097255184   -0.701720000000
 H    3.937161756240    2.160277255184   -1.266840000000
 C    3.754541756240    0.007787255184    1.393560000000
 H    3.736181756240    0.008327255184    2.488430000000
 C    3.754541756240    0.007787255184   -1.393560000000
 H    3.736181756240    0.008327255184   -2.488430000000
 C    3.852271756240   -1.212392744816    0.701560000000
 H    3.957711756240   -2.142542744816    1.267200000000
 C    3.852271756240   -1.212392744816   -0.701560000000
 H    3.957711756240   -2.142542744816   -1.267200000000
RB    1.010071756240    3.053127255184    0.000000000000
RB    1.033711756240   -3.048892744816    0.000000000000
 C   -6.064150060374   -1.233699263963   -0.701715247864
 H   -6.160720150287   -2.164879167322   -1.266838416487
 C   -6.064150060374   -1.233699263963    0.701715247864
 H   -6.160720150287   -2.164879167322    1.266838416487
 C   -5.978093206085   -0.012392301056   -1.393560000000
 H   -5.959732386559   -0.012937191778   -2.488435921874
 C   -5.978093206085   -0.012392301056    1.393560000000
 H   -5.959732386559   -0.012937191778    2.488435921874
 C   -6.075822449345    1.207779051522   -0.701558994141
 H   -6.181257221224    2.137931805584   -1.267195516911
 C   -6.075822449345    1.207779051522    0.701558994141
 H   -6.181257221224    2.137931805584    1.267195516911
