26

 C    3.864548548711    1.229146892053    0.701720000000
 H    3.961108548711    2.160326892053    1.266840000000
 C    3.864548548711    1.229146892053   -0.701720000000
 H    3.961108548711    2.160326892053   -1.266840000000
 C    3.778488548711    0.007836892053    1.393560000000
 H    3.760128548711    0.008376892053    2.488430000000
 C    3.778488548711    0.007836892053   -1.393560000000
 H    3.760128548711    0.008376892053   -2.488430000000
 C    3.876218548711   -1.212343107947    0.701560000000
 H    3.981658548711   -2.142493107947    1.267200000000
 C    3.876218548711   -1.212343107947   -0.701560000000
 H    3.981658548711   -2.142493107947   -1.267200000000
RB    1.034018548711    3.053176892053    0.000000000000
RB    1.057658548711   -3.048843107947    0.000000000000
 C   -6.140203053079   -1.233856906469   -0.701715247864
 H   -6.236773142992   -2.165036809828   -1.266838416487
 C   -6.140203053079   -1.233856906469    0.701715247864
 H   -6.236773142992   -2.165036809828    1.266838416487
 C   -6.054146198790   -0.012549943562   -1.393560000000
 H   -6.035785379264   -0.013094834285   -2.488435921874
 C   -6.054146198790   -0.012549943562    1.393560000000
 H   -6.035785379264   -0.013094834285    2.488435921874
 C   -6.151875442050    1.207621409016   -0.701558994141
 H   -6.257310213929    2.137774163077   -1.267195516911
 C   -6.151875442050    1.207621409016    0.701558994141
 H   -6.257310213929    2.137774163077    1.267195516911
