26

 C    3.888495341182    1.229196528921    0.701720000000
 H    3.985055341182    2.160376528921    1.266840000000
 C    3.888495341182    1.229196528921   -0.701720000000
 H    3.985055341182    2.160376528921   -1.266840000000
 C    3.802435341182    0.007886528921    1.393560000000
 H    3.784075341182    0.008426528921    2.488430000000
 C    3.802435341182    0.007886528921   -1.393560000000
 H    3.784075341182    0.008426528921   -2.488430000000
 C    3.900165341182   -1.212293471079    0.701560000000
 H    4.005605341182   -2.142443471079    1.267200000000
 C    3.900165341182   -1.212293471079   -0.701560000000
 H    4.005605341182   -2.142443471079   -1.267200000000
RB    1.057965341182    3.053226528921    0.000000000000
RB    1.081605341182   -3.048793471079    0.000000000000
 C   -6.216256045784   -1.234014548976   -0.701715247864
 H   -6.312826135697   -2.165194452335   -1.266838416487
 C   -6.216256045784   -1.234014548976    0.701715247864
 H   -6.312826135697   -2.165194452335    1.266838416487
 C   -6.130199191495   -0.012707586069   -1.393560000000
 H   -6.111838371969   -0.013252476791   -2.488435921874
 C   -6.130199191495   -0.012707586069    1.393560000000
 H   -6.111838371969   -0.013252476791    2.488435921874
 C   -6.227928434755    1.207463766509   -0.701558994141
 H   -6.333363206634    2.137616520571   -1.267195516911
 C   -6.227928434755    1.207463766509    0.701558994141
 H   -6.333363206634    2.137616520571    1.267195516911
