26

 C    4.080069680951    1.229593623868    0.701720000000
 H    4.176629680951    2.160773623868    1.266840000000
 C    4.080069680951    1.229593623868   -0.701720000000
 H    4.176629680951    2.160773623868   -1.266840000000
 C    3.994009680951    0.008283623868    1.393560000000
 H    3.975649680951    0.008823623868    2.488430000000
 C    3.994009680951    0.008283623868   -1.393560000000
 H    3.975649680951    0.008823623868   -2.488430000000
 C    4.091739680951   -1.211896376132    0.701560000000
 H    4.197179680951   -2.142046376132    1.267200000000
 C    4.091739680951   -1.211896376132   -0.701560000000
 H    4.197179680951   -2.142046376132   -1.267200000000
RB    1.249539680951    3.053623623868    0.000000000000
RB    1.273179680951   -3.048396376132    0.000000000000
 C   -6.824679987423   -1.235275689028   -0.701715247864
 H   -6.921250077336   -2.166455592387   -1.266838416487
 C   -6.824679987423   -1.235275689028    0.701715247864
 H   -6.921250077336   -2.166455592387    1.266838416487
 C   -6.738623133134   -0.013968726121   -1.393560000000
 H   -6.720262313608   -0.014513616843   -2.488435921874
 C   -6.738623133134   -0.013968726121    1.393560000000
 H   -6.720262313608   -0.014513616843    2.488435921874
 C   -6.836352376395    1.206202626457   -0.701558994141
 H   -6.941787148274    2.136355380519   -1.267195516911
 C   -6.836352376395    1.206202626457    0.701558994141
 H   -6.941787148274    2.136355380519    1.267195516911
