26

 C    4.319537605663    1.230089992552    0.701720000000
 H    4.416097605663    2.161269992552    1.266840000000
 C    4.319537605663    1.230089992552   -0.701720000000
 H    4.416097605663    2.161269992552   -1.266840000000
 C    4.233477605663    0.008779992552    1.393560000000
 H    4.215117605663    0.009319992552    2.488430000000
 C    4.233477605663    0.008779992552   -1.393560000000
 H    4.215117605663    0.009319992552   -2.488430000000
 C    4.331207605663   -1.211400007448    0.701560000000
 H    4.436647605663   -2.141550007448    1.267200000000
 C    4.331207605663   -1.211400007448   -0.701560000000
 H    4.436647605663   -2.141550007448   -1.267200000000
RB    1.489007605663    3.054119992552    0.000000000000
RB    1.512647605663   -3.047900007448    0.000000000000
 C   -7.585209914473   -1.236852114093   -0.701715247864
 H   -7.681780004385   -2.168032017452   -1.266838416487
 C   -7.585209914473   -1.236852114093    0.701715247864
 H   -7.681780004385   -2.168032017452    1.266838416487
 C   -7.499153060184   -0.015545151186   -1.393560000000
 H   -7.480792240657   -0.016090041908   -2.488435921874
 C   -7.499153060184   -0.015545151186    1.393560000000
 H   -7.480792240657   -0.016090041908    2.488435921874
 C   -7.596882303444    1.204626201392   -0.701558994141
 H   -7.702317075323    2.134778955454   -1.267195516911
 C   -7.596882303444    1.204626201392    0.701558994141
 H   -7.702317075323    2.134778955454    1.267195516911
