26

 C    4.439271568018    1.230338176894    0.701720000000
 H    4.535831568018    2.161518176894    1.266840000000
 C    4.439271568018    1.230338176894   -0.701720000000
 H    4.535831568018    2.161518176894   -1.266840000000
 C    4.353211568018    0.009028176894    1.393560000000
 H    4.334851568018    0.009568176894    2.488430000000
 C    4.353211568018    0.009028176894   -1.393560000000
 H    4.334851568018    0.009568176894   -2.488430000000
 C    4.450941568018   -1.211151823106    0.701560000000
 H    4.556381568018   -2.141301823106    1.267200000000
 C    4.450941568018   -1.211151823106   -0.701560000000
 H    4.556381568018   -2.141301823106   -1.267200000000
RB    1.608741568018    3.054368176894    0.000000000000
RB    1.632381568018   -3.047651823106    0.000000000000
 C   -7.965474877997   -1.237640326625   -0.701715247864
 H   -8.062044967910   -2.168820229984   -1.266838416487
 C   -7.965474877997   -1.237640326625    0.701715247864
 H   -8.062044967910   -2.168820229984    1.266838416487
 C   -7.879418023708   -0.016333363718   -1.393560000000
 H   -7.861057204182   -0.016878254441   -2.488435921874
 C   -7.879418023708   -0.016333363718    1.393560000000
 H   -7.861057204182   -0.016878254441    2.488435921874
 C   -7.977147266969    1.203837988860   -0.701558994141
 H   -8.082582038847    2.133990742921   -1.267195516911
 C   -7.977147266969    1.203837988860    0.701558994141
 H   -8.082582038847    2.133990742921    1.267195516911
