26

 C    4.463218360490    1.230387813762    0.701720000000
 H    4.559778360490    2.161567813762    1.266840000000
 C    4.463218360490    1.230387813762   -0.701720000000
 H    4.559778360490    2.161567813762   -1.266840000000
 C    4.377158360490    0.009077813762    1.393560000000
 H    4.358798360490    0.009617813762    2.488430000000
 C    4.377158360490    0.009077813762   -1.393560000000
 H    4.358798360490    0.009617813762   -2.488430000000
 C    4.474888360490   -1.211102186238    0.701560000000
 H    4.580328360490   -2.141252186238    1.267200000000
 C    4.474888360490   -1.211102186238   -0.701560000000
 H    4.580328360490   -2.141252186238   -1.267200000000
RB    1.632688360490    3.054417813762    0.000000000000
RB    1.656328360490   -3.047602186238    0.000000000000
 C   -8.041527870702   -1.237797969132   -0.701715247864
 H   -8.138097960615   -2.168977872491   -1.266838416487
 C   -8.041527870702   -1.237797969132    0.701715247864
 H   -8.138097960615   -2.168977872491    1.266838416487
 C   -7.955471016413   -0.016491006224   -1.393560000000
 H   -7.937110196887   -0.017035896947   -2.488435921874
 C   -7.955471016413   -0.016491006224    1.393560000000
 H   -7.937110196887   -0.017035896947    2.488435921874
 C   -8.053200259674    1.203680346353   -0.701558994141
 H   -8.158635031552    2.133833100415   -1.267195516911
 C   -8.053200259674    1.203680346353    0.701558994141
 H   -8.158635031552    2.133833100415    1.267195516911
