33

 N   -0.021431192071   -3.740924797563   -0.004361572132
 C    1.224558807929   -3.152534797563   -0.007151572132
 N    2.451688807929   -3.742674797563   -0.004401572132
 C    3.433848807929   -2.858264797563   -0.021001572132
 N    3.251568807929   -1.477874797563   -0.028101572132
 H    4.066508807929   -0.870984797563   -0.099681572132
 N    4.734948807929   -3.287104797563   -0.103721572132
 H    5.458848807929   -2.718644797563    0.320818427868
 H    4.846308807929   -4.286614797563    0.030868427868
 C    2.007138807929   -0.835264797563   -0.010281572132
 O    1.859398807929    0.402235202437   -0.015831572132
 C    0.950888807929   -1.788794797563    0.003568427868
 N   -0.397791192071   -1.519134797563    0.009358427868
 C   -0.961451192071   -2.731244797563    0.004948427868
 H   -2.029541192071   -2.929474797563    0.008028427868
 H   -0.211931192071   -4.738564797563   -0.009781572132
LI   -0.325571192071    0.612455202437   -0.001221572132
 C   -0.935768760273    1.760346174849   -0.003511378590
 N    0.412914073293    1.490682045791   -0.009301373706
 C    0.976570856840    2.702798185242   -0.004882353061
 H    2.044656758524    2.901030086478   -0.007962751715
 N    0.036551091319    3.712482336525    0.004420801068
 H    0.227050255629    4.710112654145    0.009839902747
 C   -1.209431776873    3.124086222317    0.007211832662
 C   -1.992015502623    0.806814669124    0.010337425095
 O   -1.844275655023   -0.430685176757    0.015883493541
 N   -3.236445532745    1.449428833701    0.028152713898
 H   -4.051395184251    0.842535094198    0.099733150216
 C   -3.418724391550    2.829817888643    0.021054352866
 N   -2.436565309667    3.714233263259    0.004460636612
 N   -4.719829511616    3.258655113071    0.103777408800
 H   -5.443727760638    2.690202311175   -0.320767016648
 H   -4.831184475807    4.258164902491   -0.030815192799
