33

 N    0.024441720701   -3.827219966854   -0.004189431013
 C    1.270431720701   -3.238829966854   -0.006979431013
 N    2.497561720701   -3.828969966854   -0.004229431013
 C    3.479721720701   -2.944559966854   -0.020829431013
 N    3.297441720701   -1.564169966854   -0.027929431013
 H    4.112381720701   -0.957279966854   -0.099509431013
 N    4.780821720701   -3.373399966854   -0.103549431013
 H    5.504721720701   -2.804939966854    0.320990568987
 H    4.892181720701   -4.372909966854    0.031040568987
 C    2.053011720701   -0.921559966854   -0.010109431013
 O    1.905271720701    0.315940033146   -0.015659431013
 C    0.996761720701   -1.875089966854    0.003740568987
 N   -0.351918279299   -1.605429966854    0.009530568987
 C   -0.915578279299   -2.817539966854    0.005120568987
 H   -1.983668279299   -3.015769966854    0.008200568987
 H   -0.166058279299   -4.824859966854   -0.009609431013
LI   -0.279698279299    0.526160033146   -0.001049431013
 C   -0.983772396456    1.850649616699   -0.003691515388
 N    0.364910437110    1.580985487640   -0.009481510504
 C    0.928567220658    2.793101627091   -0.005062489859
 H    1.996653122342    2.991333528328   -0.008142888513
 N   -0.011452544863    3.802785778375    0.004240664270
 H    0.179046619446    4.800416095994    0.009659765949
 C   -1.257435413055    3.214389664166    0.007031695864
 C   -2.040019138806    0.897118110973    0.010157288297
 O   -1.892279291205   -0.340381734908    0.015703356743
 N   -3.284449168928    1.539732275551    0.027972577100
 H   -4.099398820433    0.932838536048    0.099553013418
 C   -3.466728027732    2.920121330493    0.020874216068
 N   -2.484568945850    3.804536705108    0.004280499814
 N   -4.767833147798    3.348958554921    0.103597272001
 H   -5.491731396821    2.780505753024   -0.320947153446
 H   -4.879188111989    4.348468344340   -0.030995329597
