33

 N    0.047378177087   -3.870367551499   -0.004103360454
 C    1.293368177087   -3.281977551499   -0.006893360454
 N    2.520498177087   -3.872117551499   -0.004143360454
 C    3.502658177087   -2.987707551499   -0.020743360454
 N    3.320378177087   -1.607317551499   -0.027843360454
 H    4.135318177087   -1.000427551499   -0.099423360454
 N    4.803758177087   -3.416547551499   -0.103463360454
 H    5.527658177087   -2.848087551499    0.321076639546
 H    4.915118177087   -4.416057551499    0.031126639546
 C    2.075948177087   -0.964707551499   -0.010023360454
 O    1.928208177087    0.272792448501   -0.015573360454
 C    1.019698177087   -1.918237551499    0.003826639546
 N   -0.328981822913   -1.648577551499    0.009616639546
 C   -0.892641822913   -2.860687551499    0.005206639546
 H   -1.960731822913   -3.058917551499    0.008286639546
 H   -0.143121822913   -4.868007551499   -0.009523360454
LI   -0.256761822913    0.483012448501   -0.000963360454
 C   -1.007774214547    1.895801337624   -0.003781583787
 N    0.340908619019    1.626137208565   -0.009571578903
 C    0.904565402566    2.838253348016   -0.005152558258
 H    1.972651304250    3.036485249253   -0.008232956912
 N   -0.035454362955    3.847937499299    0.004150595871
 H    0.155044801355    4.845567816919    0.009569697550
 C   -1.281437231146    3.259541385091    0.006941627465
 C   -2.064020956897    0.942269831898    0.010067219898
 O   -1.916281109296   -0.295230013983    0.015613288344
 N   -3.308450987019    1.584883996475    0.027882508701
 H   -4.123400638524    0.977990256973    0.099462945019
 C   -3.490729845823    2.965273051417    0.020784147669
 N   -2.508570763941    3.849688426033    0.004190431415
 N   -4.791834965889    3.394110275845    0.103507203602
 H   -5.515733214912    2.825657473949   -0.321037221845
 H   -4.903189930081    4.393620065265   -0.031085397996
