33

 N    0.184996915402   -4.129253059372   -0.003586937098
 C    1.430986915402   -3.540863059372   -0.006376937098
 N    2.658116915402   -4.131003059372   -0.003626937098
 C    3.640276915402   -3.246593059372   -0.020226937098
 N    3.457996915402   -1.866203059372   -0.027326937098
 H    4.272936915402   -1.259313059372   -0.098906937098
 N    4.941376915402   -3.675433059372   -0.102946937098
 H    5.665276915402   -3.106973059372    0.321593062902
 H    5.052736915402   -4.674943059372    0.031643062902
 C    2.213566915402   -1.223593059372   -0.009506937098
 O    2.065826915402    0.013906940628   -0.015056937098
 C    1.157316915402   -2.177123059372    0.004343062902
 N   -0.191363084598   -1.907463059372    0.010133062902
 C   -0.755023084598   -3.119573059372    0.005723062902
 H   -1.823113084598   -3.317803059372    0.008803062902
 H   -0.005503084598   -5.126893059372   -0.009006937098
LI   -0.119143084598    0.224126940628   -0.000446937098
 C   -1.151785123094    2.166711663172   -0.004321994182
 N    0.196897710472    1.897047534113   -0.010111989298
 C    0.760554494019    3.109163673564   -0.005692968652
 H    1.828640395703    3.307395574801   -0.008773367306
 N   -0.179465271502    4.118847824848    0.003610185477
 H    0.011033892807    5.116478142468    0.009029287156
 C   -1.425448139694    3.530451710639    0.006401217070
 C   -2.208031865444    1.213180157447    0.009526809503
 O   -2.060292017844   -0.024319688434    0.015072877950
 N   -3.452461895566    1.855794322024    0.027342098307
 H   -4.267411547072    1.248900582521    0.098922534624
 C   -3.634740754371    3.236183376966    0.020243737274
 N   -2.652581672488    4.120598751582    0.003650021021
 N   -4.935845874437    3.665020601394    0.102966793208
 H   -5.659744123459    3.096567799498   -0.321577632240
 H   -5.047200838628    4.664530390813   -0.031625808390
