33

 N    0.299679197331   -4.344990982599   -0.003156584302
 C    1.545669197331   -3.756600982599   -0.005946584302
 N    2.772799197331   -4.346740982599   -0.003196584302
 C    3.754959197331   -3.462330982599   -0.019796584302
 N    3.572679197331   -2.081940982599   -0.026896584302
 H    4.387619197331   -1.475050982599   -0.098476584302
 N    5.056059197331   -3.891170982599   -0.102516584302
 H    5.779959197331   -3.322710982599    0.322023415698
 H    5.167419197331   -4.890680982599    0.032073415698
 C    2.328249197331   -1.439330982599   -0.009076584302
 O    2.180509197331   -0.201830982599   -0.014626584302
 C    1.271999197331   -2.392860982599    0.004773415698
 N   -0.076680802669   -2.123200982599    0.010563415698
 C   -0.640340802669   -3.335310982599    0.006153415698
 H   -1.708430802669   -3.533540982599    0.009233415698
 H    0.109179197331   -5.342630982599   -0.008576584302
LI   -0.004460802669    0.008389017401   -0.000016584302
 C   -1.271794213550    2.392470267796   -0.004772336177
 N    0.076888620015    2.122806138737   -0.010562331293
 C    0.640545403563    3.334922278188   -0.006143310648
 H    1.708631305247    3.533154179425   -0.009223709302
 N   -0.299474361958    4.344606429472    0.003159843481
 H   -0.108975197649    5.342236747092    0.008578945161
 C   -1.545457230150    3.756210315263    0.005950875075
 C   -2.328040955901    1.438938762070    0.009076467508
 O   -2.180301108300    0.201438916189    0.014622535954
 N   -3.572470986023    2.081552926648    0.026891756311
 H   -4.387420637528    1.474659187145    0.098472192629
 C   -3.754749844827    3.461941981590    0.019793395279
 N   -2.772590762945    4.346357356205    0.003199679026
 N   -5.055854964893    3.890779206018    0.102516451213
 H   -5.779753213915    3.322326404121   -0.322027974235
 H   -5.167209929084    4.890288995437   -0.032076150385
