33

 N    0.322615653717   -4.388138567245   -0.003070513743
 C    1.568605653717   -3.799748567245   -0.005860513743
 N    2.795735653717   -4.389888567245   -0.003110513743
 C    3.777895653717   -3.505478567245   -0.019710513743
 N    3.595615653717   -2.125088567245   -0.026810513743
 H    4.410555653717   -1.518198567245   -0.098390513743
 N    5.078995653717   -3.934318567245   -0.102430513743
 H    5.802895653717   -3.365858567245    0.322109486257
 H    5.190355653717   -4.933828567245    0.032159486257
 C    2.351185653717   -1.482478567245   -0.008990513743
 O    2.203445653717   -0.244978567245   -0.014540513743
 C    1.294935653717   -2.436008567245    0.004859486257
 N   -0.053744346283   -2.166348567245    0.010649486257
 C   -0.617404346283   -3.378458567245    0.006239486257
 H   -1.685494346283   -3.576688567245    0.009319486257
 H    0.132115653717   -5.385778567245   -0.008490513743
LI    0.018475653717   -0.034758567245    0.000069486257
 C   -1.295796031642    2.437621988721   -0.004862404576
 N    0.052886801924    2.167957859662   -0.010652399692
 C    0.616543585471    3.380073999113   -0.006233379047
 H    1.684629487155    3.578305900350   -0.009313777701
 N   -0.323476180050    4.389758150396    0.003069775082
 H   -0.132977015740    5.387388468016    0.008488876761
 C   -1.569459048241    3.801362036188    0.005860806676
 C   -2.352042773992    1.484090482995    0.008986399109
 O   -2.204302926391    0.246590637114    0.014532467555
 N   -3.596472804114    2.126704647572    0.026801687912
 H   -4.411422455619    1.519810908070    0.098382124230
 C   -3.778751662918    3.507093702514    0.019703326880
 N   -2.796592581036    4.391509077130    0.003109610627
 N   -5.079856782984    3.935930926943    0.102426382814
 H   -5.803755032007    3.367478125046   -0.322118042634
 H   -5.191211747176    4.935440716362   -0.032166218784
