33

 N    0.391425022875   -4.517581321181   -0.002812302065
 C    1.637415022875   -3.929191321181   -0.005602302065
 N    2.864545022875   -4.519331321181   -0.002852302065
 C    3.846705022875   -3.634921321181   -0.019452302065
 N    3.664425022875   -2.254531321181   -0.026552302065
 H    4.479365022875   -1.647641321181   -0.098132302065
 N    5.147805022875   -4.063761321181   -0.102172302065
 H    5.871705022875   -3.495301321181    0.322367697935
 H    5.259165022875   -5.063271321181    0.032417697935
 C    2.419995022875   -1.611921321181   -0.008732302065
 O    2.272255022875   -0.374421321181   -0.014282302065
 C    1.363745022875   -2.565451321181    0.005117697935
 N    0.015065022875   -2.295791321181    0.010907697935
 C   -0.548594977125   -3.507901321181    0.006497697935
 H   -1.616684977125   -3.706131321181    0.009577697935
 H    0.200925022875   -5.515221321181   -0.008232302065
LI    0.087285022875   -0.164201321181    0.000327697935
 C   -1.367801485915    2.573077151495   -0.005132609773
 N   -0.019118652350    2.303413022436   -0.010922604889
 C    0.544538131198    3.515529161887   -0.006503584244
 H    1.612624032882    3.713761063124   -0.009583982898
 N   -0.395481634323    4.525213313171    0.002799569885
 H   -0.204982470014    5.522843630791    0.008218671564
 C   -1.641464502515    3.936817198962    0.005590601479
 C   -2.424048228266    1.619545645769    0.008716193912
 O   -2.276308380665    0.382045799888    0.014262262358
 N   -3.668478258388    2.262159810347    0.026531482715
 H   -4.483427909893    1.655266070844    0.098111919033
 C   -3.850757117192    3.642548865289    0.019433121683
 N   -2.868598035310    4.526964239904    0.002839405429
 N   -5.151862237258    4.071386089717    0.102156177617
 H   -5.875760486280    3.502933287820   -0.322388247831
 H   -5.263217201449    5.070895879136   -0.032436423982
