33

 N    0.414361479261   -4.560728905827   -0.002726231506
 C    1.660351479261   -3.972338905827   -0.005516231506
 N    2.887481479261   -4.562478905827   -0.002766231506
 C    3.869641479261   -3.678068905827   -0.019366231506
 N    3.687361479261   -2.297678905827   -0.026466231506
 H    4.502301479261   -1.690788905827   -0.098046231506
 N    5.170741479261   -4.106908905827   -0.102086231506
 H    5.894641479261   -3.538448905827    0.322453768494
 H    5.282101479261   -5.106418905827    0.032503768494
 C    2.442931479261   -1.655068905827   -0.008646231506
 O    2.295191479261   -0.417568905827   -0.014196231506
 C    1.386681479261   -2.608598905827    0.005203768494
 N    0.038001479261   -2.338938905827    0.010993768494
 C   -0.525658520739   -3.551048905827    0.006583768494
 H   -1.593748520739   -3.749278905827    0.009663768494
 H    0.223861479261   -5.558368905827   -0.008146231506
LI    0.110221479261   -0.207348905827    0.000413768494
 C   -1.391803304007    2.618228872420   -0.005222678172
 N   -0.043120470441    2.348564743361   -0.011012673288
 C    0.520536313106    3.560680882812   -0.006593652643
 H    1.588622214790    3.758912784049   -0.009674051297
 N   -0.419483452415    4.570365034095    0.002709501486
 H   -0.228984288105    5.567995351715    0.008128603165
 C   -1.665466320606    3.981968919887    0.005500533080
 C   -2.448050046357    1.664697366694    0.008626125513
 O   -2.300310198756    0.427197520813    0.014172193959
 N   -3.692480076479    2.307311531271    0.026441414316
 H   -4.507429727984    1.700417791769    0.098021850634
 C   -3.874758935283    3.687700586213    0.019343053284
 N   -2.892599853401    4.572115960829    0.002749337030
 N   -5.175864055349    4.116537810642    0.102066109218
 H   -5.899762304372    3.548085008745   -0.322478316230
 H   -5.287219019541    5.116047600061   -0.032526492381
