33

 N    0.574916673961   -4.862761998345   -0.002123737591
 C    1.820906673961   -4.274371998345   -0.004913737591
 N    3.048036673961   -4.864511998345   -0.002163737591
 C    4.030196673961   -3.980101998345   -0.018763737591
 N    3.847916673961   -2.599711998345   -0.025863737591
 H    4.662856673961   -1.992821998345   -0.097443737591
 N    5.331296673961   -4.408941998345   -0.101483737591
 H    6.055196673961   -3.840481998345    0.323056262409
 H    5.442656673961   -5.408451998345    0.033106262409
 C    2.603486673961   -1.957101998345   -0.008043737591
 O    2.455746673961   -0.719601998345   -0.013593737591
 C    1.547236673961   -2.910631998345    0.005806262409
 N    0.198556673961   -2.640971998345    0.011596262409
 C   -0.365103326039   -3.853081998345    0.007186262409
 H   -1.433193326039   -4.051311998345    0.010266262409
 H    0.384416673961   -5.860401998345   -0.007543737591
LI    0.270776673961   -0.509381998345    0.001016262409
 C   -1.559816030645    2.934290918893   -0.005853156965
 N   -0.211133197080    2.664626789834   -0.011643152082
 C    0.352523586468    3.876742929285   -0.007224131436
 H    1.420609488152    4.074974830522   -0.010304530090
 N   -0.587496179053    4.886427080569    0.002079022693
 H   -0.396997014744    5.884057398189    0.007498124372
 C   -1.833479047245    4.298030966360    0.004870054286
 C   -2.616062772996    1.980759413167    0.007995646719
 O   -2.468322925395    0.743259567286    0.013541715166
 N   -3.860492803118    2.623373577745    0.025810935523
 H   -4.675442454623    2.016479838242    0.097391371841
 C   -4.042771661922    4.003762632687    0.018712574490
 N   -3.060612580040    4.888178007302    0.002118858237
 N   -5.343876781988    4.432599857115    0.101435630424
 H   -6.067775031010    3.864147055218   -0.323108795023
 H   -5.455231746179    5.432109646534   -0.033156971174
