33

 N    0.597853130347   -4.905909582990   -0.002037667031
 C    1.843843130347   -4.317519582990   -0.004827667031
 N    3.070973130347   -4.907659582990   -0.002077667031
 C    4.053133130347   -4.023249582990   -0.018677667031
 N    3.870853130347   -2.642859582990   -0.025777667031
 H    4.685793130347   -2.035969582990   -0.097357667031
 N    5.354233130347   -4.452089582990   -0.101397667031
 H    6.078133130347   -3.883629582990    0.323142332969
 H    5.465593130347   -5.451599582990    0.033192332969
 C    2.626423130347   -2.000249582990   -0.007957667031
 O    2.478683130347   -0.762749582990   -0.013507667031
 C    1.570173130347   -2.953779582990    0.005892332969
 N    0.221493130347   -2.684119582990    0.011682332969
 C   -0.342166869653   -3.896229582990    0.007272332969
 H   -1.410256869653   -4.094459582990    0.010352332969
 H    0.407353130347   -5.903549582990   -0.007457667031
LI    0.293713130347   -0.552529582990    0.001102332969
 C   -1.583817848737    2.979442639818   -0.005943225365
 N   -0.235135015171    2.709778510759   -0.011733220481
 C    0.328521768376    3.921894650210   -0.007314199835
 H    1.396607670060    4.120126551447   -0.010394598489
 N   -0.611497997145    4.931578801493    0.001988954294
 H   -0.420998832835    5.929209119113    0.007408055973
 C   -1.857480865336    4.343182687285    0.004779985887
 C   -2.640064591087    2.025911134092    0.007905578320
 O   -2.492324743486    0.788411288211    0.013451646767
 N   -3.884494621209    2.668525298670    0.025720867124
 H   -4.699444272714    2.061631559167    0.097301303441
 C   -4.066773480013    4.048914353611    0.018622506091
 N   -3.084614398131    4.933329728227    0.002028789838
 N   -5.367878600079    4.477751578040    0.101345562025
 H   -6.091776849102    3.909298776143   -0.323198863422
 H   -5.479233564271    5.477261367459   -0.033247039573
