33

 N    0.735471868662   -5.164795090863   -0.001521243676
 C    1.981461868662   -4.576405090863   -0.004311243676
 N    3.208591868662   -5.166545090863   -0.001561243676
 C    4.190751868662   -4.282135090863   -0.018161243676
 N    4.008471868662   -2.901745090863   -0.025261243676
 H    4.823411868662   -2.294855090863   -0.096841243676
 N    5.491851868662   -4.710975090863   -0.100881243676
 H    6.215751868662   -4.142515090863    0.323658756324
 H    5.603211868662   -5.710485090863    0.033708756324
 C    2.764041868662   -2.259135090863   -0.007441243676
 O    2.616301868662   -1.021635090863   -0.012991243676
 C    1.707791868662   -3.212665090863    0.006408756324
 N    0.359111868662   -2.943005090863    0.012198756324
 C   -0.204548131338   -4.155115090863    0.007788756324
 H   -1.272638131338   -4.353345090863    0.010868756324
 H    0.544971868662   -6.162435090863   -0.006941243676
LI    0.431331868662   -0.811415090863    0.001618756324
 C   -1.727828757284    3.250352965366   -0.006483635759
 N   -0.379145923718    2.980688836307   -0.012273630875
 C    0.184510859829    4.192804975758   -0.007854610230
 H    1.252596761513    4.391036876995   -0.010935008884
 N   -0.755508905692    5.202489127042    0.001448543899
 H   -0.565009741383    6.200119444662    0.006867645578
 C   -2.001491773884    4.614093012833    0.004239575493
 C   -2.784075499634    2.296821459641    0.007365167926
 O   -2.636335652034    1.059321613760    0.012911236372
 N   -4.028505529756    2.939435624218    0.025180456729
 H   -4.843455181262    2.332541884715    0.096760893047
 C   -4.210784388561    4.319824679160    0.018082095697
 N   -3.228625306678    5.204240053776    0.001488379444
 N   -5.511889508627    4.748661903588    0.100805151631
 H   -6.235787757649    4.180209101692   -0.323739273817
 H   -5.623244472818    5.748171693007   -0.033787449967
