33

 N    0.758408325048   -5.207942675508   -0.001435173117
 C    2.004398325048   -4.619552675508   -0.004225173117
 N    3.231528325048   -5.209692675508   -0.001475173117
 C    4.213688325048   -4.325282675508   -0.018075173117
 N    4.031408325048   -2.944892675508   -0.025175173117
 H    4.846348325048   -2.338002675508   -0.096755173117
 N    5.514788325048   -4.754122675508   -0.100795173117
 H    6.238688325048   -4.185662675508    0.323744826883
 H    5.626148325048   -5.753632675508    0.033794826883
 C    2.786978325048   -2.302282675508   -0.007355173117
 O    2.639238325048   -1.064782675508   -0.012905173117
 C    1.730728325048   -3.255812675508    0.006494826883
 N    0.382048325048   -2.986152675508    0.012284826883
 C   -0.181611674952   -4.198262675508    0.007874826883
 H   -1.249701674952   -4.396492675508    0.010954826883
 H    0.567908325048   -6.205582675508   -0.006855173117
LI    0.454268325048   -0.854562675508    0.001704826883
 C   -1.751830575375    3.295504686291   -0.006573704158
 N   -0.403147741810    3.025840557232   -0.012363699274
 C    0.160509041738    4.237956696683   -0.007944678629
 H    1.228594943422    4.436188597920   -0.011025077283
 N   -0.779510723783    5.247640847967    0.001358475500
 H   -0.589011559474    6.245271165587    0.006777577179
 C   -2.025493591975    4.659244733758    0.004149507094
 C   -2.808077317726    2.341973180566    0.007275099527
 O   -2.660337470125    1.104473334684    0.012821167973
 N   -4.052507347848    2.984587345143    0.025090388330
 H   -4.867456999353    2.377693605640    0.096670824648
 C   -4.234786206652    4.364976400085    0.017992027298
 N   -3.252627124770    5.249391774700    0.001398311045
 N   -5.535891326718    4.793813624513    0.100715083232
 H   -6.259789575740    4.225360822616   -0.323829342216
 H   -5.647246290909    5.793323413932   -0.033877518366
