33

 N    0.850154150592   -5.380533014090   -0.001090890879
 C    2.096144150592   -4.792143014090   -0.003880890879
 N    3.323274150592   -5.382283014090   -0.001130890879
 C    4.305434150592   -4.497873014090   -0.017730890879
 N    4.123154150592   -3.117483014090   -0.024830890879
 H    4.938094150592   -2.510593014090   -0.096410890879
 N    5.606534150592   -4.926713014090   -0.100450890879
 H    6.330434150592   -4.358253014090    0.324089109121
 H    5.717894150592   -5.926223014090    0.034139109121
 C    2.878724150592   -2.474873014090   -0.007010890879
 O    2.730984150592   -1.237373014090   -0.012560890879
 C    1.822474150592   -3.428403014090    0.006839109121
 N    0.473794150592   -3.158743014090    0.012629109121
 C   -0.089865849408   -4.370853014090    0.008219109121
 H   -1.157955849408   -4.569083014090    0.011299109121
 H    0.659654150592   -6.378173014090   -0.006510890879
LI    0.546014150592   -1.027153014090    0.002049109121
 C   -1.847837847740    3.476111569990   -0.006933977754
 N   -0.499155014175    3.206447440931   -0.012723972870
 C    0.064501769373    4.418563580382   -0.008304952225
 H    1.132587671057    4.616795481619   -0.011385350879
 N   -0.875517996148    5.428247731666    0.000998201904
 H   -0.685018831839    6.425878049286    0.006417303583
 C   -2.121500864340    4.839851617457    0.003789233498
 C   -2.904084590091    2.522580064265    0.006914825931
 O   -2.756344742490    1.285080218383    0.012460894377
 N   -4.148514620213    3.165194228842    0.024730114734
 H   -4.963464271718    2.558300489339    0.096310551052
 C   -4.330793479017    4.545583283784    0.017631753702
 N   -3.348634397135    5.429998658399    0.001038037448
 N   -5.631898599083    4.974420508212    0.100354809635
 H   -6.355796848105    4.405967706316   -0.324189615812
 H   -5.743253563274    5.973930297631   -0.034237791963
