33

 N    0.941899976135   -5.553123352672   -0.000746608642
 C    2.187889976135   -4.964733352672   -0.003536608642
 N    3.415019976135   -5.554873352672   -0.000786608642
 C    4.397179976135   -4.670463352672   -0.017386608642
 N    4.214899976135   -3.290073352672   -0.024486608642
 H    5.029839976135   -2.683183352672   -0.096066608642
 N    5.698279976135   -5.099303352672   -0.100106608642
 H    6.422179976135   -4.530843352672    0.324433391358
 H    5.809639976135   -6.098813352672    0.034483391358
 C    2.970469976135   -2.647463352672   -0.006666608642
 O    2.822729976135   -1.409963352672   -0.012216608642
 C    1.914219976135   -3.600993352672    0.007183391358
 N    0.565539976135   -3.331333352672    0.012973391358
 C    0.001879976135   -4.543443352672    0.008563391358
 H   -1.066210023865   -4.741673352672    0.011643391358
 H    0.751399976135   -6.550763352672   -0.006166608642
LI    0.637759976135   -1.199743352672    0.002393391358
 C   -1.943845120105    3.656718453689   -0.007294251350
 N   -0.595162286539    3.387054324630   -0.013084246466
 C   -0.031505502992    4.599170464081   -0.008665225821
 H    1.036580398692    4.797402365318   -0.011745624475
 N   -0.971525268513    5.608854615365    0.000637928308
 H   -0.781026104204    6.606484932985    0.006057029987
 C   -2.217508136705    5.020458501156    0.003428959901
 C   -3.000091862456    2.703186947964    0.006554552335
 O   -2.852352014855    1.465687102082    0.012100620781
 N   -4.244521892578    3.345801112541    0.024369841138
 H   -5.059471544083    2.738907373038    0.095950277456
 C   -4.426800751382    4.726190167483    0.017271480105
 N   -3.444641669500    5.610605542098    0.000677763852
 N   -5.727905871448    5.155027391911    0.099994536039
 H   -6.451804120470    4.586574590015   -0.324549889408
 H   -5.839260835639    6.154537181330   -0.034598065559
