33

 N    1.033645801679   -5.725713691254   -0.000402326405
 C    2.279635801679   -5.137323691254   -0.003192326405
 N    3.506765801679   -5.727463691254   -0.000442326405
 C    4.488925801679   -4.843053691254   -0.017042326405
 N    4.306645801679   -3.462663691254   -0.024142326405
 H    5.121585801679   -2.855773691254   -0.095722326405
 N    5.790025801679   -5.271893691254   -0.099762326405
 H    6.513925801679   -4.703433691254    0.324777673595
 H    5.901385801679   -6.271403691254    0.034827673595
 C    3.062215801679   -2.820053691254   -0.006322326405
 O    2.914475801679   -1.582553691254   -0.011872326405
 C    2.005965801679   -3.773583691254    0.007527673595
 N    0.657285801679   -3.503923691254    0.013317673595
 C    0.093625801679   -4.716033691254    0.008907673595
 H   -0.974464198321   -4.914263691254    0.011987673595
 H    0.843145801679   -6.723353691254   -0.005822326405
LI    0.729505801679   -1.372333691254    0.002737673595
 C   -2.039852392470    3.837325337388   -0.007654524947
 N   -0.691169558904    3.567661208329   -0.013444520063
 C   -0.127512775357    4.779777347780   -0.009025499417
 H    0.940573126327    4.978009249017   -0.012105898071
 N   -1.067532540878    5.789461499064    0.000277654712
 H   -0.877033376569    6.787091816684    0.005696756391
 C   -2.313515409070    5.201065384855    0.003068686305
 C   -3.096099134821    2.883793831663    0.006194278738
 O   -2.948359287220    1.646293985781    0.011740347185
 N   -4.340529164943    3.526407996240    0.024009567542
 H   -5.155478816448    2.919514256737    0.095590003859
 C   -4.522808023747    4.906797051182    0.016911206509
 N   -3.540648941865    5.791212425797    0.000317490256
 N   -5.823913143813    5.335634275610    0.099634262443
 H   -6.547811392835    4.767181473714   -0.324910163005
 H   -5.935268108004    6.335144065029   -0.034958339155
