33

 N    1.079518714450   -5.812008860545   -0.000230185287
 C    2.325508714450   -5.223618860545   -0.003020185287
 N    3.552638714450   -5.813758860545   -0.000270185287
 C    4.534798714450   -4.929348860545   -0.016870185287
 N    4.352518714450   -3.548958860545   -0.023970185287
 H    5.167458714450   -2.942068860545   -0.095550185287
 N    5.835898714450   -5.358188860545   -0.099590185287
 H    6.559798714450   -4.789728860545    0.324949814713
 H    5.947258714450   -6.357698860545    0.034999814713
 C    3.108088714450   -2.906348860545   -0.006150185287
 O    2.960348714450   -1.668848860545   -0.011700185287
 C    2.051838714450   -3.859878860545    0.007699814713
 N    0.703158714450   -3.590218860545    0.013489814713
 C    0.139498714450   -4.802328860545    0.009079814713
 H   -0.928591285550   -5.000558860545    0.012159814713
 H    0.889018714450   -6.809648860545   -0.005650185287
LI    0.775378714450   -1.458628860545    0.002909814713
 C   -2.087856028653    3.927628779238   -0.007834661745
 N   -0.739173195087    3.657964650179   -0.013624656861
 C   -0.175516411540    4.870080789630   -0.009205636216
 H    0.892569490144    5.068312690866   -0.012286034870
 N   -1.115536177061    5.879764940913    0.000097517914
 H   -0.925037012751    6.877395258533    0.005516619593
 C   -2.361519045252    5.291368826705    0.002888549507
 C   -3.144102771003    2.974097273512    0.006014141940
 O   -2.996362923403    1.736597427631    0.011560210387
 N   -4.388532801125    3.616711438089    0.023829430744
 H   -5.203482452630    3.009817698586    0.095409867061
 C   -4.570811659930    4.997100493031    0.016731069711
 N   -3.588652578047    5.881515867647    0.000137353458
 N   -5.871916779996    5.425937717459    0.099454125645
 H   -6.595815029018    4.857484915563   -0.325090299803
 H   -5.983271744187    6.425447506879   -0.035138475953
