33

 N    1.102455170836   -5.855156445190   -0.000144114727
 C    2.348445170836   -5.266766445190   -0.002934114727
 N    3.575575170836   -5.856906445190   -0.000184114727
 C    4.557735170836   -4.972496445190   -0.016784114727
 N    4.375455170836   -3.592106445190   -0.023884114727
 H    5.190395170836   -2.985216445190   -0.095464114727
 N    5.858835170836   -5.401336445190   -0.099504114727
 H    6.582735170836   -4.832876445190    0.325035885273
 H    5.970195170836   -6.400846445190    0.035085885273
 C    3.131025170836   -2.949496445190   -0.006064114727
 O    2.983285170836   -1.711996445190   -0.011614114727
 C    2.074775170836   -3.903026445190    0.007785885273
 N    0.726095170836   -3.633366445190    0.013575885273
 C    0.162435170836   -4.845476445190    0.009165885273
 H   -0.905654829164   -5.043706445190    0.012245885273
 H    0.911955170836   -6.852796445190   -0.005564114727
LI    0.798315170836   -1.501776445190    0.002995885273
 C   -2.111857846744    3.972780500162   -0.007924730144
 N   -0.763175013178    3.703116371103   -0.013714725260
 C   -0.199518229631    4.915232510555   -0.009295704615
 H    0.868567672053    5.113464411791   -0.012376103269
 N   -1.139537995152    5.924916661838    0.000007449515
 H   -0.949038830843    6.922546979458    0.005426551194
 C   -2.385520863344    5.336520547629    0.002798481108
 C   -3.168104589094    3.019248994437    0.005924073541
 O   -3.020364741494    1.781749148556    0.011470141988
 N   -4.412534619216    3.661863159014    0.023739362345
 H   -5.227484270722    3.054969419511    0.095319798662
 C   -4.594813478021    5.042252213956    0.016641001312
 N   -3.612654396138    5.926667588572    0.000047285059
 N   -5.895918598087    5.471089438384    0.099364057246
 H   -6.619816847109    4.902636636488   -0.325180368202
 H   -6.007273562278    6.470599227803   -0.035228544352
