33

 N    1.125391627222   -5.898304029836   -0.000058044168
 C    2.371381627222   -5.309914029836   -0.002848044168
 N    3.598511627222   -5.900054029836   -0.000098044168
 C    4.580671627222   -5.015644029836   -0.016698044168
 N    4.398391627222   -3.635254029836   -0.023798044168
 H    5.213331627222   -3.028364029836   -0.095378044168
 N    5.881771627222   -5.444484029836   -0.099418044168
 H    6.605671627222   -4.876024029836    0.325121955832
 H    5.993131627222   -6.443994029836    0.035171955832
 C    3.153961627222   -2.992644029836   -0.005978044168
 O    3.006221627222   -1.755144029836   -0.011528044168
 C    2.097711627222   -3.946174029836    0.007871955832
 N    0.749031627222   -3.676514029836    0.013661955832
 C    0.185371627222   -4.888624029836    0.009251955832
 H   -0.882718372778   -5.086854029836    0.012331955832
 H    0.934891627222   -6.895944029836   -0.005478044168
LI    0.821251627222   -1.544924029836    0.003081955832
 C   -2.135859664835    4.017932221087   -0.008014798543
 N   -0.787176831269    3.748268092028   -0.013804793659
 C   -0.223520047722    4.960384231479   -0.009385773014
 H    0.844565853962    5.158616132716   -0.012466171668
 N   -1.163539813243    5.970068382763   -0.000082618885
 H   -0.973040648934    6.967698700383    0.005336482795
 C   -2.409522681435    5.381672268554    0.002708412709
 C   -3.192106407186    3.064400715362    0.005834005142
 O   -3.044366559585    1.826900869480    0.011380073588
 N   -4.436536437308    3.707014879939    0.023649293946
 H   -5.251486088813    3.100121140436    0.095229730263
 C   -4.618815296112    5.087403934881    0.016550932913
 N   -3.636656214230    5.971819309496   -0.000042783340
 N   -5.919920416178    5.516241159309    0.099273988847
 H   -6.643818665200    4.947788357413   -0.325270436601
 H   -6.031275380369    6.515750948728   -0.035318612751
