33

 N    1.148328083608   -5.941451614481    0.000028026391
 C    2.394318083608   -5.353061614481   -0.002761973609
 N    3.621448083608   -5.943201614481   -0.000011973609
 C    4.603608083608   -5.058791614481   -0.016611973609
 N    4.421328083608   -3.678401614481   -0.023711973609
 H    5.236268083608   -3.071511614481   -0.095291973609
 N    5.904708083608   -5.487631614481   -0.099331973609
 H    6.628608083608   -4.919171614481    0.325208026391
 H    6.016068083608   -6.487141614481    0.035258026391
 C    3.176898083608   -3.035791614481   -0.005891973609
 O    3.029158083608   -1.798291614481   -0.011441973609
 C    2.120648083608   -3.989321614481    0.007958026391
 N    0.771968083608   -3.719661614481    0.013748026391
 C    0.208308083608   -4.931771614481    0.009338026391
 H   -0.859781916392   -5.130001614481    0.012418026391
 H    0.957828083608   -6.939091614481   -0.005391973609
LI    0.844188083608   -1.588071614481    0.003168026391
 C   -2.159861482927    4.063083942012   -0.008104866942
 N   -0.811178649361    3.793419812953   -0.013894862058
 C   -0.247521865814    5.005535952404   -0.009475841413
 H    0.820564035870    5.203767853641   -0.012556240067
 N   -1.187541631335    6.015220103687   -0.000172687284
 H   -0.997042467025    7.012850421307    0.005246414395
 C   -2.433524499526    5.426823989479    0.002618344310
 C   -3.216108225277    3.109552436286    0.005743936743
 O   -3.068368377676    1.872052590405    0.011290005189
 N   -4.460538255399    3.752166600864    0.023559225546
 H   -5.275487906904    3.145272861361    0.095139661864
 C   -4.642817114203    5.132555655806    0.016460864514
 N   -3.660658032321    6.016971030421   -0.000132851739
 N   -5.943922234269    5.561392880234    0.099183920448
 H   -6.667820483292    4.992940078337   -0.325360505000
 H   -6.055277198460    6.560902669653   -0.035408681150
