33

 N    1.194200996379   -6.027746783772    0.000200167510
 C    2.440190996379   -5.439356783772   -0.002589832490
 N    3.667320996379   -6.029496783772    0.000160167510
 C    4.649480996379   -5.145086783772   -0.016439832490
 N    4.467200996379   -3.764696783772   -0.023539832490
 H    5.282140996379   -3.157806783772   -0.095119832490
 N    5.950580996379   -5.573926783772   -0.099159832490
 H    6.674480996379   -5.005466783772    0.325380167510
 H    6.061940996379   -6.573436783772    0.035430167510
 C    3.222770996379   -3.122086783772   -0.005719832490
 O    3.075030996379   -1.884586783772   -0.011269832490
 C    2.166520996379   -4.075616783772    0.008130167510
 N    0.817840996379   -3.805956783772    0.013920167510
 C    0.254180996379   -5.018066783772    0.009510167510
 H   -0.813909003621   -5.216296783772    0.012590167510
 H    1.003700996379   -7.025386783772   -0.005219832490
LI    0.890060996379   -1.674366783772    0.003340167510
 C   -2.207865119109    4.153387383861   -0.008285003740
 N   -0.859182285543    3.883723254802   -0.014074998856
 C   -0.295525501996    5.095839394254   -0.009655978211
 H    0.772560399688    5.294071295490   -0.012736376865
 N   -1.235545267517    6.105523545537   -0.000352824082
 H   -1.045046103208    7.103153863157    0.005066277597
 C   -2.481528135709    5.517127431328    0.002438207512
 C   -3.264111861459    3.199855878136    0.005563799945
 O   -3.116372013859    1.962356032255    0.011109868391
 N   -4.508541891581    3.842470042713    0.023379088748
 H   -5.323491543087    3.235576303210    0.094959525066
 C   -4.690820750386    5.222859097655    0.016280727716
 N   -3.708661668503    6.107274472271   -0.000312988538
 N   -5.991925870452    5.651696322083    0.099003783650
 H   -6.715824119474    5.083243520187   -0.325540641798
 H   -6.103280834643    6.651206111502   -0.035588817948
