33

 N    1.217137452765   -6.070894368417    0.000286238069
 C    2.463127452765   -5.482504368417   -0.002503761931
 N    3.690257452765   -6.072644368417    0.000246238069
 C    4.672417452765   -5.188234368417   -0.016353761931
 N    4.490137452765   -3.807844368417   -0.023453761931
 H    5.305077452765   -3.200954368417   -0.095033761931
 N    5.973517452765   -5.617074368417   -0.099073761931
 H    6.697417452765   -5.048614368417    0.325466238069
 H    6.084877452765   -6.616584368417    0.035516238069
 C    3.245707452765   -3.165234368417   -0.005633761931
 O    3.097967452765   -1.927734368417   -0.011183761931
 C    2.189457452765   -4.118764368417    0.008216238069
 N    0.840777452765   -3.849104368417    0.014006238069
 C    0.277117452765   -5.061214368417    0.009596238069
 H   -0.790972547235   -5.259444368417    0.012676238069
 H    1.026637452765   -7.068534368417   -0.005133761931
LI    0.912997452765   -1.717514368417    0.003426238069
 C   -2.231866937200    4.198539104786   -0.008375072139
 N   -0.883184103634    3.928874975727   -0.014165067255
 C   -0.319527320087    5.140991115178   -0.009746046610
 H    0.748558581597    5.339223016415   -0.012826445264
 N   -1.259547085608    6.150675266462   -0.000442892481
 H   -1.069047921299    7.148305584082    0.004976209198
 C   -2.505529953800    5.562279152253    0.002348139113
 C   -3.288113679551    3.245007599061    0.005473731546
 O   -3.140373831950    2.007507753179    0.011019799992
 N   -4.532543709673    3.887621763638    0.023289020349
 H   -5.347493361178    3.280728024135    0.094869456667
 C   -4.714822568477    5.268010818580    0.016190659317
 N   -3.732663486595    6.152426193195   -0.000403056937
 N   -6.015927688543    5.696848043008    0.098913715251
 H   -6.739825937565    5.128395241112   -0.325630710197
 H   -6.127282652734    6.696357832427   -0.035678886348
