33

 N    1.285946821923   -6.200337122354    0.000544449747
 C    2.531936821923   -5.611947122354   -0.002245550253
 N    3.759066821923   -6.202087122354    0.000504449747
 C    4.741226821923   -5.317677122354   -0.016095550253
 N    4.558946821923   -3.937287122354   -0.023195550253
 H    5.373886821923   -3.330397122354   -0.094775550253
 N    6.042326821923   -5.746517122354   -0.098815550253
 H    6.766226821923   -5.178057122354    0.325724449747
 H    6.153686821923   -6.746027122354    0.035774449747
 C    3.314516821923   -3.294677122354   -0.005375550253
 O    3.166776821923   -2.057177122354   -0.010925550253
 C    2.258266821923   -4.248207122354    0.008474449747
 N    0.909586821923   -3.978547122354    0.014264449747
 C    0.345926821923   -5.190657122354    0.009854449747
 H   -0.722163178077   -5.388887122354    0.012934449747
 H    1.095446821923   -7.197977122354   -0.004875550253
LI    0.981806821923   -1.846957122354    0.003684449747
 C   -2.303872391474    4.333994267560   -0.008645277336
 N   -0.955189557908    4.064330138501   -0.014435272452
 C   -0.391532774361    5.276446277953   -0.010016251807
 H    0.676553127323    5.474678179189   -0.013096650461
 N   -1.331552539882    6.286130429236   -0.000713097678
 H   -1.141053375573    7.283760746856    0.004706004001
 C   -2.577535408074    5.697734315027    0.002077933916
 C   -3.360119133824    3.380462761835    0.005203526349
 O   -3.212379286224    2.142962915954    0.010749594795
 N   -4.604549163946    4.023076926412    0.023018815152
 H   -5.419498815452    3.416183186909    0.094599251470
 C   -4.786828022751    5.403465981354    0.015920454120
 N   -3.804668940868    6.287881355970   -0.000673262134
 N   -6.087933142817    5.832303205782    0.098643510053
 H   -6.811831391839    5.263850403886   -0.325900915394
 H   -6.199288107008    6.831812995201   -0.035949091545
