33

 N    1.423565560238   -6.459222630226    0.001060873102
 C    2.669555560238   -5.870832630226   -0.001729126898
 N    3.896685560238   -6.460972630226    0.001020873102
 C    4.878845560238   -5.576562630226   -0.015579126898
 N    4.696565560238   -4.196172630226   -0.022679126898
 H    5.511505560238   -3.589282630226   -0.094259126898
 N    6.179945560238   -6.005402630226   -0.098299126898
 H    6.903845560238   -5.436942630226    0.326240873102
 H    6.291305560238   -7.004912630226    0.036290873102
 C    3.452135560238   -3.553562630226   -0.004859126898
 O    3.304395560238   -2.316062630226   -0.010409126898
 C    2.395885560238   -4.507092630226    0.008990873102
 N    1.047205560238   -4.237432630226    0.014780873102
 C    0.483545560238   -5.449542630226    0.010370873102
 H   -0.584544439762   -5.647772630226    0.013450873102
 H    1.233065560238   -7.456862630226   -0.004359126898
LI    1.119425560238   -2.105842630226    0.004200873102
 C   -2.447883300022    4.604904593109   -0.009185687730
 N   -1.099200466456    4.335240464050   -0.014975682847
 C   -0.535543682909    5.547356603501   -0.010556662201
 H    0.532542218775    5.745588504738   -0.013637060855
 N   -1.475563448430    6.557040754785   -0.001253508072
 H   -1.285064284120    7.554671072404    0.004165593607
 C   -2.721546316621    5.968644640576    0.001537523521
 C   -3.504130042372    3.651373087383    0.004663115954
 O   -3.356390194771    2.413873241502    0.010209184401
 N   -4.748560072494    4.293987251961    0.022478404758
 H   -5.563509723999    3.687093512458    0.094058841075
 C   -4.930838931298    5.674376306903    0.015380043725
 N   -3.948679849416    6.558791681518   -0.001213672528
 N   -6.231944051364    6.103213531331    0.098103099659
 H   -6.955842300387    5.534760729434   -0.326441325788
 H   -6.343299015555    7.102723320750   -0.036489501939
