33

 N    1.446502016624   -6.502370214872    0.001146943662
 C    2.692492016624   -5.913980214872   -0.001643056338
 N    3.919622016624   -6.504120214872    0.001106943662
 C    4.901782016624   -5.619710214872   -0.015493056338
 N    4.719502016624   -4.239320214872   -0.022593056338
 H    5.534442016624   -3.632430214872   -0.094173056338
 N    6.202882016624   -6.048550214872   -0.098213056338
 H    6.926782016624   -5.480090214872    0.326326943662
 H    6.314242016624   -7.048060214872    0.036376943662
 C    3.475072016624   -3.596710214872   -0.004773056338
 O    3.327332016624   -2.359210214872   -0.010323056338
 C    2.418822016624   -4.550240214872    0.009076943662
 N    1.070142016624   -4.280580214872    0.014866943662
 C    0.506482016624   -5.492690214872    0.010456943662
 H   -0.561607983376   -5.690920214872    0.013536943662
 H    1.256002016624   -7.500010214872   -0.004273056338
LI    1.142362016624   -2.148990214872    0.004286943662
 C   -2.471885118113    4.650056314034   -0.009275756130
 N   -1.123202284547    4.380392184975   -0.015065751246
 C   -0.559545501000    5.592508324426   -0.010646730600
 H    0.508540400684    5.790740225662   -0.013727129254
 N   -1.499565266521    6.602192475709   -0.001343576471
 H   -1.309066102211    7.599822793329    0.004075525208
 C   -2.745548134712    6.013796361501    0.001447455122
 C   -3.528131860463    3.696524808308    0.004573047555
 O   -3.380392012862    2.459024962427    0.010119116002
 N   -4.772561890585    4.339138972885    0.022388336359
 H   -5.587511542090    3.732245233383    0.093968772676
 C   -4.954840749390    5.719528027827    0.015289975326
 N   -3.972681667507    6.603943402443   -0.001303740927
 N   -6.255945869456    6.148365252255    0.098013031260
 H   -6.979844118478    5.579912450359   -0.326531394188
 H   -6.367300833647    7.147875041675   -0.036579570338
