33

 N    1.538247842167   -6.674960553454    0.001491225899
 C    2.784237842167   -6.086570553454   -0.001298774101
 N    4.011367842167   -6.676710553454    0.001451225899
 C    4.993527842167   -5.792300553454   -0.015148774101
 N    4.811247842167   -4.411910553454   -0.022248774101
 H    5.626187842167   -3.805020553454   -0.093828774101
 N    6.294627842167   -6.221140553454   -0.097868774101
 H    7.018527842167   -5.652680553454    0.326671225899
 H    6.405987842167   -7.220650553454    0.036721225899
 C    3.566817842167   -3.769300553454   -0.004428774101
 O    3.419077842167   -2.531800553454   -0.009978774101
 C    2.510567842167   -4.722830553454    0.009421225899
 N    1.161887842167   -4.453170553454    0.015211225899
 C    0.598227842167   -5.665280553454    0.010801225899
 H   -0.469862157833   -5.863510553454    0.013881225899
 H    1.347747842167   -7.672600553454   -0.003928774101
LI    1.234107842167   -2.321580553454    0.004631225899
 C   -2.567892390478    4.830663197733   -0.009636029726
 N   -1.219209556912    4.560999068674   -0.015426024842
 C   -0.655552773365    5.773115208125   -0.011007004197
 H    0.412533128319    5.971347109361   -0.014087402851
 N   -1.595572538886    6.782799359408   -0.001703850068
 H   -1.405073374576    7.780429677028    0.003715251612
 C   -2.841555407077    6.194403245200    0.001087181526
 C   -3.624139132828    3.877131692007    0.004212773959
 O   -3.476399285227    2.639631846126    0.009758842405
 N   -4.868569162950    4.519745856584    0.022028062763
 H   -5.683518814455    3.912852117082    0.093608499080
 C   -5.050848021755    5.900134911526    0.014929701730
 N   -4.068688939872    6.784550286142   -0.001664014523
 N   -6.351953141821    6.328972135954    0.097652757664
 H   -7.075851390843    5.760519334058   -0.326891667784
 H   -6.463308106012    7.328481925374   -0.036939843934
