33

 N    1.584120754939   -6.761255722744    0.001663367017
 C    2.830110754939   -6.172865722744   -0.001126632983
 N    4.057240754939   -6.763005722744    0.001623367017
 C    5.039400754939   -5.878595722744   -0.014976632983
 N    4.857120754939   -4.498205722744   -0.022076632983
 H    5.672060754939   -3.891315722744   -0.093656632983
 N    6.340500754939   -6.307435722744   -0.097696632983
 H    7.064400754939   -5.738975722744    0.326843367017
 H    6.451860754939   -7.306945722744    0.036893367017
 C    3.612690754939   -3.855595722744   -0.004256632983
 O    3.464950754939   -2.618095722744   -0.009806632983
 C    2.556440754939   -4.809125722744    0.009593367017
 N    1.207760754939   -4.539465722744    0.015383367017
 C    0.644100754939   -5.751575722744    0.010973367017
 H   -0.423989245061   -5.949805722744    0.014053367017
 H    1.393620754939   -7.758895722744   -0.003756632983
LI    1.279980754939   -2.407875722744    0.004803367017
 C   -2.615896026660    4.920966639582   -0.009816166524
 N   -1.267213193094    4.651302510523   -0.015606161640
 C   -0.703556409547    5.863418649974   -0.011187140995
 H    0.364529492137    6.061650551211   -0.014267539649
 N   -1.643576175068    6.873102801258   -0.001883986866
 H   -1.453077010759    7.870733118878    0.003535114813
 C   -2.889559043260    6.284706687049    0.000907044728
 C   -3.672142769010    3.967435133857    0.004032637161
 O   -3.524402921410    2.729935287975    0.009578705607
 N   -4.916572799133    4.610049298434    0.021847925964
 H   -5.731522450638    4.003155558931    0.093428362282
 C   -5.098851657937    5.990438353376    0.014749564932
 N   -4.116692576055    6.874853727992   -0.001844151321
 N   -6.399956778003    6.419275577804    0.097472620866
 H   -7.123855027025    5.850822775908   -0.327071804582
 H   -6.511311742194    7.418785367223   -0.037119980732
