33

 N    1.607057211325   -6.804403307390    0.001749437577
 C    2.853047211325   -6.216013307390   -0.001040562423
 N    4.080177211325   -6.806153307390    0.001709437577
 C    5.062337211325   -5.921743307390   -0.014890562423
 N    4.880057211325   -4.541353307390   -0.021990562423
 H    5.694997211325   -3.934463307390   -0.093570562423
 N    6.363437211325   -6.350583307390   -0.097610562423
 H    7.087337211325   -5.782123307390    0.326929437577
 H    6.474797211325   -7.350093307390    0.036979437577
 C    3.635627211325   -3.898743307390   -0.004170562423
 O    3.487887211325   -2.661243307390   -0.009720562423
 C    2.579377211325   -4.852273307390    0.009679437577
 N    1.230697211325   -4.582613307390    0.015469437577
 C    0.667037211325   -5.794723307390    0.011059437577
 H   -0.401052788675   -5.992953307390    0.014139437577
 H    1.416557211325   -7.802043307390   -0.003670562423
LI    1.302917211325   -2.451023307390    0.004889437577
 C   -2.639897844752    4.966118360507   -0.009906234923
 N   -1.291215011186    4.696454231448   -0.015696230039
 C   -0.727558227639    5.908570370899   -0.011277209394
 H    0.340527674045    6.106802272136   -0.014357608048
 N   -1.667577993160    6.918254522183   -0.001974055265
 H   -1.477078828850    7.915884839802    0.003445046414
 C   -2.913560861351    6.329858407974    0.000816976329
 C   -3.696144587102    4.012586854781    0.003942568762
 O   -3.548404739501    2.775087008900    0.009488637208
 N   -4.940574617224    4.655201019359    0.021757857565
 H   -5.755524268729    4.048307279856    0.093338293883
 C   -5.122853476028    6.035590074301    0.014659496533
 N   -4.140694394146    6.920005448916   -0.001934219720
 N   -6.423958596094    6.464427298729    0.097382552467
 H   -7.147856845117    5.895974496832   -0.327161872981
 H   -6.535313560285    7.463937088148   -0.037210049131
