33

 N    1.629993667711   -6.847550892035    0.001835508136
 C    2.875983667711   -6.259160892035   -0.000954491864
 N    4.103113667711   -6.849300892035    0.001795508136
 C    5.085273667711   -5.964890892035   -0.014804491864
 N    4.902993667711   -4.584500892035   -0.021904491864
 H    5.717933667711   -3.977610892035   -0.093484491864
 N    6.386373667711   -6.393730892035   -0.097524491864
 H    7.110273667711   -5.825270892035    0.327015508136
 H    6.497733667711   -7.393240892035    0.037065508136
 C    3.658563667711   -3.941890892035   -0.004084491864
 O    3.510823667711   -2.704390892035   -0.009634491864
 C    2.602313667711   -4.895420892035    0.009765508136
 N    1.253633667711   -4.625760892035    0.015555508136
 C    0.689973667711   -5.837870892035    0.011145508136
 H   -0.378116332289   -6.036100892035    0.014225508136
 H    1.439493667711   -7.845190892035   -0.003584491864
LI    1.325853667711   -2.494170892035    0.004975508136
 C   -2.663899662843    5.011270081432   -0.009996303322
 N   -1.315216829277    4.741605952373   -0.015786298438
 C   -0.751560045730    5.953722091824   -0.011367277793
 H    0.316525855954    6.151953993061   -0.014447676447
 N   -1.691579811251    6.963406243107   -0.002064123664
 H   -1.501080646941    7.961036560727    0.003354978015
 C   -2.937562679442    6.375010128899    0.000726907930
 C   -3.720146405193    4.057738575706    0.003852500363
 O   -3.572406557592    2.820238729825    0.009398568809
 N   -4.964576435315    4.700352740283    0.021667789166
 H   -5.779526086820    4.093459000781    0.093248225484
 C   -5.146855294120    6.080741795225    0.014569428134
 N   -4.164696212237    6.965157169841   -0.002024288120
 N   -6.447960414186    6.509579019653    0.097292484068
 H   -7.171858663208    5.941126217757   -0.327251941380
 H   -6.559315378377    7.509088809073   -0.037300117531
