33

 N    1.675866580482   -6.933846061326    0.002007649254
 C    2.921856580482   -6.345456061326   -0.000782350746
 N    4.148986580482   -6.935596061326    0.001967649254
 C    5.131146580482   -6.051186061326   -0.014632350746
 N    4.948866580482   -4.670796061326   -0.021732350746
 H    5.763806580482   -4.063906061326   -0.093312350746
 N    6.432246580482   -6.480026061326   -0.097352350746
 H    7.156146580482   -5.911566061326    0.327187649254
 H    6.543606580482   -7.479536061326    0.037237649254
 C    3.704436580482   -4.028186061326   -0.003912350746
 O    3.556696580482   -2.790686061326   -0.009462350746
 C    2.648186580482   -4.981716061326    0.009937649254
 N    1.299506580482   -4.712056061326    0.015727649254
 C    0.735846580482   -5.924166061326    0.011317649254
 H   -0.332243419518   -6.122396061326    0.014397649254
 H    1.485366580482   -7.931486061326   -0.003412350746
LI    1.371726580482   -2.580466061326    0.005147649254
 C   -2.711903299025    5.101573523281   -0.010176440120
 N   -1.363220465459    4.831909394222   -0.015966435236
 C   -0.799563681912    6.044025533673   -0.011547414591
 H    0.268522219772    6.242257434910   -0.014627813245
 N   -1.739583447433    7.053709684957   -0.002244260462
 H   -1.549084283124    8.051340002577    0.003174841217
 C   -2.985566315625    6.465313570748    0.000546771132
 C   -3.768150041375    4.148042017556    0.003672363565
 O   -3.620410193775    2.910542171674    0.009218432011
 N   -5.012580071497    4.790656182133    0.021487652368
 H   -5.827529723003    4.183762442630    0.093068088686
 C   -5.194858930302    6.171045237075    0.014389291336
 N   -4.212699848420    7.055460611691   -0.002204424918
 N   -6.495964050368    6.599882461503    0.097112347270
 H   -7.219862299390    6.031429659607   -0.327432078178
 H   -6.607319014559    7.599392250922   -0.037480254329
