33

 N    1.744675949640   -7.063288815263    0.002265860932
 C    2.990665949640   -6.474898815263   -0.000524139068
 N    4.217795949640   -7.065038815263    0.002225860932
 C    5.199955949640   -6.180628815263   -0.014374139068
 N    5.017675949640   -4.800238815263   -0.021474139068
 H    5.832615949640   -4.193348815263   -0.093054139068
 N    6.501055949640   -6.609468815263   -0.097094139068
 H    7.224955949640   -6.041008815263    0.327445860932
 H    6.612415949640   -7.608978815263    0.037495860932
 C    3.773245949640   -4.157628815263   -0.003654139068
 O    3.625505949640   -2.920128815263   -0.009204139068
 C    2.716995949640   -5.111158815263    0.010195860932
 N    1.368315949640   -4.841498815263    0.015985860932
 C    0.804655949640   -6.053608815263    0.011575860932
 H   -0.263434050360   -6.251838815263    0.014655860932
 H    1.554175949640   -8.060928815263   -0.003154139068
LI    1.440535949640   -2.709908815263    0.005405860932
 C   -2.783908753299    5.237028686055   -0.010446645317
 N   -1.435225919733    4.967364556996   -0.016236640433
 C   -0.871569136186    6.179480696448   -0.011817619788
 H    0.196516765498    6.377712597684   -0.014898018442
 N   -1.811588901707    7.189164847731   -0.002514465659
 H   -1.621089737398    8.186795165351    0.002904636020
 C   -3.057571769899    6.600768733523    0.000276565935
 C   -3.840155495649    4.283497180330    0.003402158368
 O   -3.692415648049    3.045997334449    0.008948226814
 N   -5.084585525771    4.926111344907    0.021217447171
 H   -5.899535177277    4.319217605404    0.092797883489
 C   -5.266864384576    6.306500399849    0.014119086139
 N   -4.284705302693    7.190915774465   -0.002474630115
 N   -6.567969504642    6.735337624277    0.096842142072
 H   -7.291867753664    6.166884822381   -0.327702283375
 H   -6.679324468833    7.734847413696   -0.037750459526
