33

 N    1.767612406026   -7.106436399908    0.002351931491
 C    3.013602406026   -6.518046399908   -0.000438068509
 N    4.240732406026   -7.108186399908    0.002311931491
 C    5.222892406026   -6.223776399908   -0.014288068509
 N    5.040612406026   -4.843386399908   -0.021388068509
 H    5.855552406026   -4.236496399908   -0.092968068509
 N    6.523992406026   -6.652616399908   -0.097008068509
 H    7.247892406026   -6.084156399908    0.327531931491
 H    6.635352406026   -7.652126399908    0.037581931491
 C    3.796182406026   -4.200776399908   -0.003568068509
 O    3.648442406026   -2.963276399908   -0.009118068509
 C    2.739932406026   -5.154306399908    0.010281931491
 N    1.391252406026   -4.884646399908    0.016071931491
 C    0.827592406026   -6.096756399908    0.011661931491
 H   -0.240497593974   -6.294986399908    0.014741931491
 H    1.577112406026   -8.104076399908   -0.003068068509
LI    1.463472406026   -2.753056399908    0.005491931491
 C   -2.807910571390    5.282180406980   -0.010536713716
 N   -1.459227737824    5.012516277921   -0.016326708832
 C   -0.895570954277    6.224632417372   -0.011907688187
 H    0.172514947407    6.422864318609   -0.014988086841
 N   -1.835590719798    7.234316568656   -0.002604534058
 H   -1.645091555489    8.231946886276    0.002814567621
 C   -3.081573587990    6.645920454447    0.000186497535
 C   -3.864157313740    4.328648901255    0.003312089969
 O   -3.716417466140    3.091149055374    0.008858158415
 N   -5.108587343862    4.971263065832    0.021127378772
 H   -5.923536995368    4.364369326329    0.092707815090
 C   -5.290866202667    6.351652120774    0.014029017740
 N   -4.308707120785    7.236067495390   -0.002564698514
 N   -6.591971322733    6.780489345202    0.096752073673
 H   -7.315869571755    6.212036543306   -0.327792351774
 H   -6.703326286924    7.779999134621   -0.037840527925
