33

 N    1.813485318798   -7.192731569199    0.002524072610
 C    3.059475318798   -6.604341569199   -0.000265927390
 N    4.286605318798   -7.194481569199    0.002484072610
 C    5.268765318798   -6.310071569199   -0.014115927390
 N    5.086485318798   -4.929681569199   -0.021215927390
 H    5.901425318798   -4.322791569199   -0.092795927390
 N    6.569865318798   -6.738911569199   -0.096835927390
 H    7.293765318798   -6.170451569199    0.327704072610
 H    6.681225318798   -7.738421569199    0.037754072610
 C    3.842055318798   -4.287071569199   -0.003395927390
 O    3.694315318798   -3.049571569199   -0.008945927390
 C    2.785805318798   -5.240601569199    0.010454072610
 N    1.437125318798   -4.970941569199    0.016244072610
 C    0.873465318798   -6.183051569199    0.011834072610
 H   -0.194624681202   -6.381281569199    0.014914072610
 H    1.622985318798   -8.190371569199   -0.002895927390
LI    1.509345318798   -2.839351569199    0.005664072610
 C   -2.855914207573    5.372483848830   -0.010716850514
 N   -1.507231374007    5.102819719771   -0.016506845631
 C   -0.943574590460    6.314935859222   -0.012087824985
 H    0.124511311224    6.513167760459   -0.015168223639
 N   -1.883594355981    7.324620010505   -0.002784670856
 H   -1.693095191671    8.322250328125    0.002634430823
 C   -3.129577224172    6.736223896297    0.000006360737
 C   -3.912160949923    4.418952343104    0.003131953170
 O   -3.764421102322    3.181452497223    0.008678021617
 N   -5.156590980045    5.061566507681    0.020947241974
 H   -5.971540631550    4.454672768179    0.092527678292
 C   -5.338869838850    6.441955562623    0.013848880941
 N   -4.356710756967    7.326370937239   -0.002744835312
 N   -6.639974958916    6.870792787051    0.096571936875
 H   -7.363873207938    6.302339985155   -0.327972488572
 H   -6.751329923107    7.870302576471   -0.038020664723
