15

 N   -1.392242299237    0.680282828676    0.000000299517
 H   -1.523452299237    1.297772828676    0.805160299517
 H   -1.523452299237    1.297772828676   -0.805159700483
 C   -2.503282299237   -0.319067171324    0.000000299517
 H   -2.415422299237   -0.951917171324   -0.892389700483
 H   -3.494182299237    0.153292828676    0.000000299517
 H   -2.415422299237   -0.951917171324    0.892390299517
LI    0.402737700763   -0.196787171324    0.000000299517
 N    1.301216010567   -0.635805083044    0.000000299517
 H    1.432422400422   -1.253294865434   -0.805161950471
 H    1.432423047520   -1.253293498075    0.805163492701
 C    2.412259603857    0.363541675297   -0.000001064691
 H    2.324402679757    0.996398694695    0.892393021734
 H    3.403153938602   -0.108811599033   -0.000001148781
 H    2.324401925805    0.996397096500   -0.892396210275
