15

 N   -1.513330202890    0.739449263766    0.000000299517
 H   -1.644540202890    1.356939263766    0.805160299517
 H   -1.644540202890    1.356939263766   -0.805159700483
 C   -2.624370202890   -0.259900736234    0.000000299517
 H   -2.536510202890   -0.892750736234   -0.892389700483
 H   -3.615270202890    0.212459263766    0.000000299517
 H   -2.536510202890   -0.892750736234    0.892390299517
LI    0.281649797110   -0.137620736234    0.000000299517
 N    1.449671599855   -0.708344021471    0.000000299517
 H    1.580877989710   -1.325833803860   -0.805161950471
 H    1.580878636808   -1.325832436501    0.805163492701
 C    2.560715193145    0.291002736871   -0.000001064691
 H    2.472858269045    0.923859756269    0.892393021734
 H    3.551609527890   -0.181350537459   -0.000001148781
 H    2.472857515093    0.923858158073   -0.892396210275
