15

 N   -1.715143375646    0.838059988915    0.000000299517
 H   -1.846353375646    1.455549988915    0.805160299517
 H   -1.846353375646    1.455549988915   -0.805159700483
 C   -2.826183375646   -0.161290011085    0.000000299517
 H   -2.738323375646   -0.794140011085   -0.892389700483
 H   -3.817083375646    0.311069988915    0.000000299517
 H   -2.738323375646   -0.794140011085    0.892390299517
LI    0.079836624354   -0.039010011085    0.000000299517
 N    1.697097582002   -0.829242252182    0.000000299517
 H    1.828303971857   -1.446732034571   -0.805161950471
 H    1.828304618954   -1.446730667212    0.805163492701
 C    2.808141175292    0.170104506160   -0.000001064691
 H    2.720284251191    0.802961525558    0.892393021734
 H    3.799035510037   -0.302248768170   -0.000001148781
 H    2.720283497239    0.802959927363   -0.892396210275
