15

 N   -1.755506010197    0.857782133945    0.000000299517
 H   -1.886716010197    1.475272133945    0.805160299517
 H   -1.886716010197    1.475272133945   -0.805159700483
 C   -2.866546010197   -0.141567866055    0.000000299517
 H   -2.778686010197   -0.774417866055   -0.892389700483
 H   -3.857446010197    0.330792133945    0.000000299517
 H   -2.778686010197   -0.774417866055    0.892390299517
LI    0.039473989803   -0.019287866055    0.000000299517
 N    1.746582778431   -0.853421898324    0.000000299517
 H    1.877789168286   -1.470911680713   -0.805161950471
 H    1.877789815384   -1.470910313354    0.805163492701
 C    2.857626371721    0.145924860018   -0.000001064691
 H    2.769769447620    0.778781879416    0.892393021734
 H    3.848520706466   -0.326428414312   -0.000001148781
 H    2.769768693668    0.778780281220   -0.892396210275
