15

 N   -5.024879408840    2.455275881367    0.000000299517
 H   -5.156089408840    3.072765881367    0.805160299517
 H   -5.156089408840    3.072765881367   -0.805159700483
 C   -6.135919408840    1.455925881367    0.000000299517
 H   -6.048059408840    0.823075881367   -0.892389700483
 H   -7.126819408840    1.928285881367    0.000000299517
 H   -6.048059408840    0.823075881367    0.892390299517
LI   -3.229899408840    1.578205881367    0.000000299517
 N    5.754883689202   -2.811973235837    0.000000299517
 H    5.886090079057   -3.429463018227   -0.805161950471
 H    5.886090726155   -3.429461650868    0.805163492701
 C    6.865927282492   -1.812626477496   -0.000001064691
 H    6.778070358391   -1.179769458098    0.892393021734
 H    7.856821617237   -2.284979751825   -0.000001148781
 H    6.778069604439   -1.179771056293   -0.892396210275
