15

 N   -1.795868644748    0.877504278975    0.000000299517
 H   -1.927078644748    1.494994278975    0.805160299517
 H   -1.927078644748    1.494994278975   -0.805159700483
 C   -2.906908644748   -0.121845721025    0.000000299517
 H   -2.819048644748   -0.754695721025   -0.892389700483
 H   -3.897808644748    0.350514278975    0.000000299517
 H   -2.819048644748   -0.754695721025    0.892390299517
LI   -0.000888644748    0.000434278975    0.000000299517
 N    1.796067974860   -0.877601544466    0.000000299517
 H    1.927274364715   -1.495091326855   -0.805161950471
 H    1.927275011813   -1.495089959496    0.805163492701
 C    2.907111568150    0.121745213876   -0.000001064691
 H    2.819254644050    0.754602233274    0.892393021734
 H    3.898005902895   -0.350608060454   -0.000001148781
 H    2.819253890097    0.754600635078   -0.892396210275
