15

 N   -1.916956548402    0.936670714065    0.000000299517
 H   -2.048166548402    1.554160714065    0.805160299517
 H   -2.048166548402    1.554160714065   -0.805159700483
 C   -3.027996548402   -0.062679285935    0.000000299517
 H   -2.940136548402   -0.695529285935   -0.892389700483
 H   -4.018896548402    0.409680714065    0.000000299517
 H   -2.940136548402   -0.695529285935    0.892390299517
LI   -0.121976548402    0.059600714065    0.000000299517
 N    1.944523564148   -0.950140482892    0.000000299517
 H    2.075729954003   -1.567630265282   -0.805161950471
 H    2.075730601101   -1.567628897923    0.805163492701
 C    3.055567157438    0.049206275449   -0.000001064691
 H    2.967710233337    0.682063294847    0.892393021734
 H    4.046461492183   -0.423146998880   -0.000001148781
 H    2.967709479385    0.682061696652   -0.892396210275
