15

 N   -1.957319182953    0.956392859095    0.000000299517
 H   -2.088529182953    1.573882859095    0.805160299517
 H   -2.088529182953    1.573882859095   -0.805159700483
 C   -3.068359182953   -0.042957140905    0.000000299517
 H   -2.980499182953   -0.675807140905   -0.892389700483
 H   -4.059259182953    0.429402859095    0.000000299517
 H   -2.980499182953   -0.675807140905    0.892390299517
LI   -0.162339182953    0.079322859095    0.000000299517
 N    1.994008760577   -0.974320129034    0.000000299517
 H    2.125215150432   -1.591809911424   -0.805161950471
 H    2.125215797530   -1.591808544065    0.805163492701
 C    3.105052353867    0.025026629307   -0.000001064691
 H    3.017195429767    0.657883648705    0.892393021734
 H    4.095946688612   -0.447326645023   -0.000001148781
 H    3.017194675815    0.657882050510   -0.892396210275
