15

 N   -2.038044452055    0.995837149154    0.000000299517
 H   -2.169254452055    1.613327149154    0.805160299517
 H   -2.169254452055    1.613327149154   -0.805159700483
 C   -3.149084452055   -0.003512850846    0.000000299517
 H   -3.061224452055   -0.636362850846   -0.892389700483
 H   -4.139984452055    0.468847149154    0.000000299517
 H   -3.061224452055   -0.636362850846    0.892390299517
LI   -0.243064452055    0.118767149154    0.000000299517
 N    2.092979153436   -1.022679421319    0.000000299517
 H    2.224185543291   -1.640169203708   -0.805161950471
 H    2.224186190388   -1.640167836349    0.805163492701
 C    3.204022746726   -0.023332662977   -0.000001064691
 H    3.116165822625    0.609524356421    0.892393021734
 H    4.194917081471   -0.495685937307   -0.000001148781
 H    3.116165068673    0.609522758225   -0.892396210275
