15

 N   -2.078407086606    1.015559294184    0.000000299517
 H   -2.209617086606    1.633049294184    0.805160299517
 H   -2.209617086606    1.633049294184   -0.805159700483
 C   -3.189447086606    0.016209294184    0.000000299517
 H   -3.101587086606   -0.616640705816   -0.892389700483
 H   -4.180347086606    0.488569294184    0.000000299517
 H   -3.101587086606   -0.616640705816    0.892390299517
LI   -0.283427086606    0.138489294184    0.000000299517
 N    2.142464349865   -1.046859067461    0.000000299517
 H    2.273670739720   -1.664348849850   -0.805161950471
 H    2.273671386818   -1.664347482491    0.805163492701
 C    3.253507943155   -0.047512309119   -0.000001064691
 H    3.165651019055    0.585344710279    0.892393021734
 H    4.244402277900   -0.519865583449   -0.000001148781
 H    3.165650265102    0.585343112083   -0.892396210275
