15

 N   -2.159132355709    1.055003584244    0.000000299517
 H   -2.290342355709    1.672493584244    0.805160299517
 H   -2.290342355709    1.672493584244   -0.805159700483
 C   -3.270172355709    0.055653584244    0.000000299517
 H   -3.182312355709   -0.577196415756   -0.892389700483
 H   -4.261072355709    0.528013584244    0.000000299517
 H   -3.182312355709   -0.577196415756    0.892390299517
LI   -0.364152355709    0.177933584244    0.000000299517
 N    2.241434742724   -1.095218359745    0.000000299517
 H    2.372641132579   -1.712708142134   -0.805161950471
 H    2.372641779676   -1.712706774776    0.805163492701
 C    3.352478336014   -0.095871601404   -0.000001064691
 H    3.264621411913    0.536985417994    0.892393021734
 H    4.343372670759   -0.568224875733   -0.000001148781
 H    3.264620657961    0.536983819799   -0.892396210275
