15

 N   -2.199494990260    1.074725729274    0.000000299517
 H   -2.330704990260    1.692215729274    0.805160299517
 H   -2.330704990260    1.692215729274   -0.805159700483
 C   -3.310534990260    0.075375729274    0.000000299517
 H   -3.222674990260   -0.557474270726   -0.892389700483
 H   -4.301434990260    0.547735729274    0.000000299517
 H   -3.222674990260   -0.557474270726    0.892390299517
LI   -0.404514990260    0.197655729274    0.000000299517
 N    2.290919939153   -1.119398005887    0.000000299517
 H    2.422126329008   -1.736887788277   -0.805161950471
 H    2.422126976106   -1.736886420918    0.805163492701
 C    3.401963532443   -0.120051247546   -0.000001064691
 H    3.314106608342    0.512805771852    0.892393021734
 H    4.392857867188   -0.592404521875   -0.000001148781
 H    3.314105854390    0.512804173657   -0.892396210275
