15

 N   -2.360945528464    1.153614309394    0.000000299517
 H   -2.492155528464    1.771104309394    0.805160299517
 H   -2.492155528464    1.771104309394   -0.805159700483
 C   -3.471985528464    0.154264309394    0.000000299517
 H   -3.384125528464   -0.478585690606   -0.892389700483
 H   -4.462885528464    0.626624309394    0.000000299517
 H   -3.384125528464   -0.478585690606    0.892390299517
LI   -0.565965528464    0.276544309394    0.000000299517
 N    2.488860724870   -1.216116590456    0.000000299517
 H    2.620067114725   -1.833606372845   -0.805161950471
 H    2.620067761823   -1.833605005486    0.805163492701
 C    3.599904318160   -0.216769832114   -0.000001064691
 H    3.512047394059    0.416087187284    0.892393021734
 H    4.590798652905   -0.689123106444   -0.000001148781
 H    3.512046640107    0.416085589088   -0.892396210275
