15

 N   -2.522396066669    1.232502889513    0.000000299517
 H   -2.653606066669    1.849992889513    0.805160299517
 H   -2.653606066669    1.849992889513   -0.805159700483
 C   -3.633436066669    0.233152889513    0.000000299517
 H   -3.545576066669   -0.399697110487   -0.892389700483
 H   -4.624336066669    0.705512889513    0.000000299517
 H   -3.545576066669   -0.399697110487    0.892390299517
LI   -0.727416066669    0.355432889513    0.000000299517
 N    2.686801510587   -1.312835175024    0.000000299517
 H    2.818007900442   -1.930324957414   -0.805161950471
 H    2.818008547540   -1.930323590055    0.805163492701
 C    3.797845103877   -0.313488416683   -0.000001064691
 H    3.709988179777    0.319368602715    0.892393021734
 H    4.788739438622   -0.785841691013   -0.000001148781
 H    3.709987425824    0.319367004520   -0.892396210275
