15

 N   -2.562758701220    1.252225034543    0.000000299517
 H   -2.693968701220    1.869715034543    0.805160299517
 H   -2.693968701220    1.869715034543   -0.805159700483
 C   -3.673798701220    0.252875034543    0.000000299517
 H   -3.585938701220   -0.379974965457   -0.892389700483
 H   -4.664698701220    0.725235034543    0.000000299517
 H   -3.585938701220   -0.379974965457    0.892390299517
LI   -0.767778701220    0.375155034543    0.000000299517
 N    2.736286707016   -1.337014821167    0.000000299517
 H    2.867493096871   -1.954504603556   -0.805161950471
 H    2.867493743969   -1.954503236197    0.805163492701
 C    3.847330300306   -0.337668062825   -0.000001064691
 H    3.759473376206    0.295188956573    0.892393021734
 H    4.838224635051   -0.810021337155   -0.000001148781
 H    3.759472622254    0.295187358378   -0.892396210275
