15

 N   -2.764571873976    1.350835759693    0.000000299517
 H   -2.895781873976    1.968325759693    0.805160299517
 H   -2.895781873976    1.968325759693   -0.805159700483
 C   -3.875611873976    0.351485759693    0.000000299517
 H   -3.787751873976   -0.281364240307   -0.892389700483
 H   -4.866511873976    0.823845759693    0.000000299517
 H   -3.787751873976   -0.281364240307    0.892390299517
LI   -0.969591873976    0.473765759693    0.000000299517
 N    2.983712689163   -1.457913051877    0.000000299517
 H    3.114919079018   -2.075402834267   -0.805161950471
 H    3.114919726115   -2.075401466908    0.805163492701
 C    4.094756282453   -0.458566293536   -0.000001064691
 H    4.006899358352    0.174290725862    0.892393021734
 H    5.085650617198   -0.930919567865   -0.000001148781
 H    4.006898604400    0.174289127667   -0.892396210275
