15

 N   -2.926022412180    1.429724339812    0.000000299517
 H   -3.057232412180    2.047214339812    0.805160299517
 H   -3.057232412180    2.047214339812   -0.805159700483
 C   -4.037062412180    0.430374339812    0.000000299517
 H   -3.949202412180   -0.202475660188   -0.892389700483
 H   -5.027962412180    0.902734339812    0.000000299517
 H   -3.949202412180   -0.202475660188    0.892390299517
LI   -1.131042412180    0.552654339812    0.000000299517
 N    3.181653474880   -1.554631636446    0.000000299517
 H    3.312859864735   -2.172121418835   -0.805161950471
 H    3.312860511832   -2.172120051476    0.805163492701
 C    4.292697068170   -0.555284878104   -0.000001064691
 H    4.204840144069    0.077572141294    0.892393021734
 H    5.283591402915   -1.027638152434   -0.000001148781
 H    4.204839390117    0.077570543098   -0.892396210275
