15

 N   -3.006747681283    1.469168629872    0.000000299517
 H   -3.137957681283    2.086658629872    0.805160299517
 H   -3.137957681283    2.086658629872   -0.805159700483
 C   -4.117787681283    0.469818629872    0.000000299517
 H   -4.029927681283   -0.163031370128   -0.892389700483
 H   -5.108687681283    0.942178629872    0.000000299517
 H   -4.029927681283   -0.163031370128    0.892390299517
LI   -1.211767681283    0.592098629872    0.000000299517
 N    3.280623867738   -1.602990928730    0.000000299517
 H    3.411830257593   -2.220480711119   -0.805161950471
 H    3.411830904691   -2.220479343761    0.805163492701
 C    4.391667461028   -0.603644170389   -0.000001064691
 H    4.303810536928    0.029212849009    0.892393021734
 H    5.382561795773   -1.075997444718   -0.000001148781
 H    4.303809782976    0.029211250814   -0.892396210275
