15

 N   -3.127835584936    1.528335064962    0.000000299517
 H   -3.259045584936    2.145825064962    0.805160299517
 H   -3.259045584936    2.145825064962   -0.805159700483
 C   -4.238875584936    0.528985064962    0.000000299517
 H   -4.151015584936   -0.103864935038   -0.892389700483
 H   -5.229775584936    1.001345064962    0.000000299517
 H   -4.151015584936   -0.103864935038    0.892390299517
LI   -1.332855584936    0.651265064962    0.000000299517
 N    3.429079457026   -1.675529867157    0.000000299517
 H    3.560285846881   -2.293019649546   -0.805161950471
 H    3.560286493979   -2.293018282187    0.805163492701
 C    4.540123050316   -0.676183108815   -0.000001064691
 H    4.452266126216   -0.043326089417    0.892393021734
 H    5.531017385061   -1.148536383145   -0.000001148781
 H    4.452265372263   -0.043327687612   -0.892396210275
