15

 N   -3.168198219487    1.548057209992    0.000000299517
 H   -3.299408219487    2.165547209992    0.805160299517
 H   -3.299408219487    2.165547209992   -0.805159700483
 C   -4.279238219487    0.548707209992    0.000000299517
 H   -4.191378219487   -0.084142790008   -0.892389700483
 H   -5.270138219487    1.021067209992    0.000000299517
 H   -4.191378219487   -0.084142790008    0.892390299517
LI   -1.373218219487    0.670987209992    0.000000299517
 N    3.478564653455   -1.699709513299    0.000000299517
 H    3.609771043310   -2.317199295688   -0.805161950471
 H    3.609771690408   -2.317197928329    0.805163492701
 C    4.589608246745   -0.700362754957   -0.000001064691
 H    4.501751322645   -0.067505735559    0.892393021734
 H    5.580502581490   -1.172716029287   -0.000001148781
 H    4.501750568693   -0.067507333755   -0.892396210275
