15

 N   -3.248923488590    1.587501500052    0.000000299517
 H   -3.380133488590    2.204991500052    0.805160299517
 H   -3.380133488590    2.204991500052   -0.805159700483
 C   -4.359963488590    0.588151500052    0.000000299517
 H   -4.272103488590   -0.044698499948   -0.892389700483
 H   -5.350863488590    1.060511500052    0.000000299517
 H   -4.272103488590   -0.044698499948    0.892390299517
LI   -1.453943488590    0.710431500052    0.000000299517
 N    3.577535046314   -1.748068805583    0.000000299517
 H    3.708741436169   -2.365558587972   -0.805161950471
 H    3.708742083267   -2.365557220614    0.805163492701
 C    4.688578639604   -0.748722047241   -0.000001064691
 H    4.600721715503   -0.115865027843    0.892393021734
 H    5.679472974349   -1.221075321571   -0.000001148781
 H    4.600720961551   -0.115866626039   -0.892396210275
