15

 N   -3.370011392243    1.646667935141    0.000000299517
 H   -3.501221392243    2.264157935141    0.805160299517
 H   -3.501221392243    2.264157935141   -0.805159700483
 C   -4.481051392243    0.647317935141    0.000000299517
 H   -4.393191392243    0.014467935141   -0.892389700483
 H   -5.471951392243    1.119677935141    0.000000299517
 H   -4.393191392243    0.014467935141    0.892390299517
LI   -1.575031392243    0.769597935141    0.000000299517
 N    3.725990635602   -1.820607744009    0.000000299517
 H    3.857197025457   -2.438097526399   -0.805161950471
 H    3.857197672554   -2.438096159040    0.805163492701
 C    4.837034228892   -0.821260985668   -0.000001064691
 H    4.749177304791   -0.188403966270    0.892393021734
 H    5.827928563637   -1.293614259998   -0.000001148781
 H    4.749176550839   -0.188405564465   -0.892396210275
