15

 N   -3.491099295896    1.705834370231    0.000000299517
 H   -3.622309295896    2.323324370231    0.805160299517
 H   -3.622309295896    2.323324370231   -0.805159700483
 C   -4.602139295896    0.706484370231    0.000000299517
 H   -4.514279295896    0.073634370231   -0.892389700483
 H   -5.593039295896    1.178844370231    0.000000299517
 H   -4.514279295896    0.073634370231    0.892390299517
LI   -1.696119295896    0.828764370231    0.000000299517
 N    3.874446224890   -1.893146682436    0.000000299517
 H    4.005652614745   -2.510636464825   -0.805161950471
 H    4.005653261842   -2.510635097466    0.805163492701
 C    4.985489818179   -0.893799924094   -0.000001064691
 H    4.897632894079   -0.260942904696    0.892393021734
 H    5.976384152925   -1.366153198424   -0.000001148781
 H    4.897632140127   -0.260944502892   -0.892396210275
