15

 N   -3.531461930448    1.725556515261    0.000000299517
 H   -3.662671930448    2.343046515261    0.805160299517
 H   -3.662671930448    2.343046515261   -0.805159700483
 C   -4.642501930448    0.726206515261    0.000000299517
 H   -4.554641930448    0.093356515261   -0.892389700483
 H   -5.633401930448    1.198566515261    0.000000299517
 H   -4.554641930448    0.093356515261    0.892390299517
LI   -1.736481930448    0.848486515261    0.000000299517
 N    3.923931421319   -1.917326328578    0.000000299517
 H    4.055137811174   -2.534816110967   -0.805161950471
 H    4.055138458272   -2.534814743609    0.805163492701
 C    5.034975014609   -0.917979570236   -0.000001064691
 H    4.947118090508   -0.285122550838    0.892393021734
 H    6.025869349354   -1.390332844566   -0.000001148781
 H    4.947117336556   -0.285124149034   -0.892396210275
