15

 N   -3.692912468652    1.804445095380    0.000000299517
 H   -3.824122468652    2.421935095380    0.805160299517
 H   -3.824122468652    2.421935095380   -0.805159700483
 C   -4.803952468652    0.805095095380    0.000000299517
 H   -4.716092468652    0.172245095380   -0.892389700483
 H   -5.794852468652    1.277455095380    0.000000299517
 H   -4.716092468652    0.172245095380    0.892390299517
LI   -1.897932468652    0.927375095380    0.000000299517
 N    4.121872207036   -2.014044913147    0.000000299517
 H    4.253078596891   -2.631534695536   -0.805161950471
 H    4.253079243989   -2.631533328177    0.805163492701
 C    5.232915800326   -1.014698154805   -0.000001064691
 H    5.145058876225   -0.381841135407    0.892393021734
 H    6.223810135071   -1.487051429135   -0.000001148781
 H    5.145058122273   -0.381842733602   -0.892396210275
