15

 N   -3.733275103203    1.824167240410    0.000000299517
 H   -3.864485103203    2.441657240410    0.805160299517
 H   -3.864485103203    2.441657240410   -0.805159700483
 C   -4.844315103203    0.824817240410    0.000000299517
 H   -4.756455103203    0.191967240410   -0.892389700483
 H   -5.835215103203    1.297177240410    0.000000299517
 H   -4.756455103203    0.191967240410    0.892390299517
LI   -1.938295103203    0.947097240410    0.000000299517
 N    4.171357403465   -2.038224559289    0.000000299517
 H    4.302563793320   -2.655714341678   -0.805161950471
 H    4.302564440418   -2.655712974319    0.805163492701
 C    5.282400996755   -1.038877800947   -0.000001064691
 H    5.194544072655   -0.406020781549    0.892393021734
 H    6.273295331500   -1.511231075277   -0.000001148781
 H    5.194543318703   -0.406022379745   -0.892396210275
