15

 N   -3.894725641408    1.903055820530    0.000000299517
 H   -4.025935641408    2.520545820530    0.805160299517
 H   -4.025935641408    2.520545820530   -0.805159700483
 C   -5.005765641408    0.903705820530    0.000000299517
 H   -4.917905641408    0.270855820530   -0.892389700483
 H   -5.996665641408    1.376065820530    0.000000299517
 H   -4.917905641408    0.270855820530    0.892390299517
LI   -2.099745641408    1.025985820530    0.000000299517
 N    4.369298189182   -2.134943143857    0.000000299517
 H    4.500504579037   -2.752432926247   -0.805161950471
 H    4.500505226135   -2.752431558888    0.805163492701
 C    5.480341782472   -1.135596385516   -0.000001064691
 H    5.392484858372   -0.502739366118    0.892393021734
 H    6.471236117217   -1.607949659845   -0.000001148781
 H    5.392484104420   -0.502740964313   -0.892396210275
