15

 N   -4.136901448715    2.021388690709    0.000000299517
 H   -4.268111448715    2.638878690709    0.805160299517
 H   -4.268111448715    2.638878690709   -0.805159700483
 C   -5.247941448715    1.022038690709    0.000000299517
 H   -5.160081448715    0.389188690709   -0.892389700483
 H   -6.238841448715    1.494398690709    0.000000299517
 H   -5.160081448715    0.389188690709    0.892390299517
LI   -2.341921448715    1.144318690709    0.000000299517
 N    4.666209367758   -2.280021020710    0.000000299517
 H    4.797415757613   -2.897510803099   -0.805161950471
 H    4.797416404711   -2.897509435741    0.805163492701
 C    5.777252961048   -1.280674262369   -0.000001064691
 H    5.689396036947   -0.647817242970    0.892393021734
 H    6.768147295793   -1.753027536698   -0.000001148781
 H    5.689395282995   -0.647818841166   -0.892396210275
