15

 N   -4.177264083266    2.041110835739    0.000000299517
 H   -4.308474083266    2.658600835739    0.805160299517
 H   -4.308474083266    2.658600835739   -0.805159700483
 C   -5.288304083266    1.041760835739    0.000000299517
 H   -5.200444083266    0.408910835739   -0.892389700483
 H   -6.279204083266    1.514120835739    0.000000299517
 H   -5.200444083266    0.408910835739    0.892390299517
LI   -2.382284083266    1.164040835739    0.000000299517
 N    4.715694564187   -2.304200666852    0.000000299517
 H    4.846900954042   -2.921690449242   -0.805161950471
 H    4.846901601140   -2.921689081883    0.805163492701
 C    5.826738157477   -1.304853908511   -0.000001064691
 H    5.738881233377   -0.671996889113    0.892393021734
 H    6.817632492222   -1.777207182840   -0.000001148781
 H    5.738880479425   -0.671998487308   -0.892396210275
