15

 N   -4.257989352368    2.080555125799    0.000000299517
 H   -4.389199352368    2.698045125799    0.805160299517
 H   -4.389199352368    2.698045125799   -0.805159700483
 C   -5.369029352368    1.081205125799    0.000000299517
 H   -5.281169352368    0.448355125799   -0.892389700483
 H   -6.359929352368    1.553565125799    0.000000299517
 H   -5.281169352368    0.448355125799    0.892390299517
LI   -2.463009352368    1.203485125799    0.000000299517
 N    4.814664957046   -2.352559959137    0.000000299517
 H    4.945871346901   -2.970049741526   -0.805161950471
 H    4.945871993998   -2.970048374167    0.805163492701
 C    5.925708550336   -1.353213200795   -0.000001064691
 H    5.837851626235   -0.720356181397    0.892393021734
 H    6.916602885081   -1.825566475125   -0.000001148781
 H    5.837850872283   -0.720357779592   -0.892396210275
