15

 N   -4.298351986919    2.100277270829    0.000000299517
 H   -4.429561986919    2.717767270829    0.805160299517
 H   -4.429561986919    2.717767270829   -0.805159700483
 C   -5.409391986919    1.100927270829    0.000000299517
 H   -5.321531986919    0.468077270829   -0.892389700483
 H   -6.400291986919    1.573287270829    0.000000299517
 H   -5.321531986919    0.468077270829    0.892390299517
LI   -2.503371986919    1.223207270829    0.000000299517
 N    4.864150153475   -2.376739605279    0.000000299517
 H    4.995356543330   -2.994229387668   -0.805161950471
 H    4.995357190428   -2.994228020309    0.805163492701
 C    5.975193746765   -1.377392846937   -0.000001064691
 H    5.887336822665   -0.744535827539    0.892393021734
 H    6.966088081510   -1.849746121267   -0.000001148781
 H    5.887336068712   -0.744537425735   -0.892396210275
