15

 N   -4.500165159675    2.198887995979    0.000000299517
 H   -4.631375159675    2.816377995979    0.805160299517
 H   -4.631375159675    2.816377995979   -0.805159700483
 C   -5.611205159675    1.199537995979    0.000000299517
 H   -5.523345159675    0.566687995979   -0.892389700483
 H   -6.602105159675    1.671897995979    0.000000299517
 H   -5.523345159675    0.566687995979    0.892390299517
LI   -2.705185159675    1.321817995979    0.000000299517
 N    5.111576135621   -2.497637835989    0.000000299517
 H    5.242782525476   -3.115127618379   -0.805161950471
 H    5.242783172574   -3.115126251020    0.805163492701
 C    6.222619728911   -1.498291077648   -0.000001064691
 H    6.134762804811   -0.865434058250    0.892393021734
 H    7.213514063656   -1.970644351977   -0.000001148781
 H    6.134762050859   -0.865435656445   -0.892396210275
