15

 N   -4.701978332431    2.297498721128    0.000000299517
 H   -4.833188332431    2.914988721128    0.805160299517
 H   -4.833188332431    2.914988721128   -0.805159700483
 C   -5.813018332431    1.298148721128    0.000000299517
 H   -5.725158332431    0.665298721128   -0.892389700483
 H   -6.803918332431    1.770508721128    0.000000299517
 H   -5.725158332431    0.665298721128    0.892390299517
LI   -2.906998332431    1.420428721128    0.000000299517
 N    5.359002117768   -2.618536066700    0.000000299517
 H    5.490208507623   -3.236025849089   -0.805161950471
 H    5.490209154720   -3.236024481731    0.805163492701
 C    6.470045711058   -1.619189308359   -0.000001064691
 H    6.382188786957   -0.986332288960    0.892393021734
 H    7.460940045803   -2.091542582688   -0.000001148781
 H    6.382188033005   -0.986333887156   -0.892396210275
