15

 N   -4.823066236084    2.356665156218    0.000000299517
 H   -4.954276236084    2.974155156218    0.805160299517
 H   -4.954276236084    2.974155156218   -0.805159700483
 C   -5.934106236084    1.357315156218    0.000000299517
 H   -5.846246236084    0.724465156218   -0.892389700483
 H   -6.925006236084    1.829675156218    0.000000299517
 H   -5.846246236084    0.724465156218    0.892390299517
LI   -3.028086236084    1.479595156218    0.000000299517
 N    5.507457707056   -2.691075005127    0.000000299517
 H    5.638664096911   -3.308564787516   -0.805161950471
 H    5.638664744008   -3.308563420157    0.805163492701
 C    6.618501300345   -1.691728246785   -0.000001064691
 H    6.530644376245   -1.058871227387    0.892393021734
 H    7.609395635091   -2.164081521115   -0.000001148781
 H    6.530643622293   -1.058872825582   -0.892396210275
