15

 N   -4.863428870635    2.376387301248    0.000000299517
 H   -4.994638870635    2.993877301248    0.805160299517
 H   -4.994638870635    2.993877301248   -0.805159700483
 C   -5.974468870635    1.377037301248    0.000000299517
 H   -5.886608870635    0.744187301248   -0.892389700483
 H   -6.965368870635    1.849397301248    0.000000299517
 H   -5.886608870635    0.744187301248    0.892390299517
LI   -3.068448870635    1.499317301248    0.000000299517
 N    5.556942903485   -2.715254651269    0.000000299517
 H    5.688149293340   -3.332744433658   -0.805161950471
 H    5.688149940438   -3.332743066299    0.805163492701
 C    6.667986496775   -1.715907892927   -0.000001064691
 H    6.580129572674   -1.083050873529    0.892393021734
 H    7.658880831520   -2.188261167257   -0.000001148781
 H    6.580128818722   -1.083052471724   -0.892396210275
