15

 N   -4.903791505187    2.396109446278    0.000000299517
 H   -5.035001505187    3.013599446278    0.805160299517
 H   -5.035001505187    3.013599446278   -0.805159700483
 C   -6.014831505187    1.396759446278    0.000000299517
 H   -5.926971505187    0.763909446278   -0.892389700483
 H   -7.005731505187    1.869119446278    0.000000299517
 H   -5.926971505187    0.763909446278    0.892390299517
LI   -3.108811505187    1.519039446278    0.000000299517
 N    5.606428099914   -2.739434297411    0.000000299517
 H    5.737634489769   -3.356924079800   -0.805161950471
 H    5.737635136867   -3.356922712441    0.805163492701
 C    6.717471693204   -1.740087539069   -0.000001064691
 H    6.629614769104   -1.107230519671    0.892393021734
 H    7.708366027949   -2.212440813399   -0.000001148781
 H    6.629614015151   -1.107232117867   -0.892396210275
