15

 N   -4.944154139738    2.415831591307    0.000000299517
 H   -5.075364139738    3.033321591307    0.805160299517
 H   -5.075364139738    3.033321591307   -0.805159700483
 C   -6.055194139738    1.416481591307    0.000000299517
 H   -5.967334139738    0.783631591307   -0.892389700483
 H   -7.046094139738    1.888841591307    0.000000299517
 H   -5.967334139738    0.783631591307    0.892390299517
LI   -3.149174139738    1.538761591307    0.000000299517
 N    5.655913296343   -2.763613943553    0.000000299517
 H    5.787119686198   -3.381103725942   -0.805161950471
 H    5.787120333296   -3.381102358584    0.805163492701
 C    6.766956889633   -1.764267185211   -0.000001064691
 H    6.679099965533   -1.131410165813    0.892393021734
 H    7.757851224378   -2.236620459541   -0.000001148781
 H    6.679099211581   -1.131411764009   -0.892396210275
