17

 N   -1.782819648619   -1.577829892778   -0.047167498574
 C   -0.572631581775   -0.922623689102   -0.043205874606
 N    0.660780832528   -1.521301383564   -0.031167589701
 C    1.631204032584   -0.631125241953   -0.043040046674
 N    1.428127195171    0.730512891561   -0.049875207016
 H    2.231954320422    1.350473431316   -0.131863229438
 N    2.956658786821   -1.049799963633   -0.121387349909
 H    3.611194992153   -0.517996739233    0.446253426821
 H    3.035463874212   -2.050500107568    0.040195988080
 C    0.168853452854    1.416546595092   -0.036921420339
 O    0.141273083749    2.644719679869   -0.041009548767
 C   -0.903931673122    0.442853205818   -0.030720222399
 N   -2.275004974891    0.629184251131   -0.030795407115
 C   -2.768528469402   -0.609418762914   -0.041125506780
 H   -3.826026382670   -0.863565384746   -0.044072151206
 H   -1.907916645150   -2.584412978010   -0.055827049605
LI    1.436723305861    0.727410435752    0.950083032936
