17

 N   -1.782857803925   -1.577816121998   -0.051605984075
 C   -0.572669737081   -0.922609918322   -0.047644360107
 N    0.660742677222   -1.521287612784   -0.035606075202
 C    1.631165877278   -0.631111471173   -0.047478532175
 N    1.428089039865    0.730526662341   -0.054313692517
 H    2.231916165116    1.350487202096   -0.136301714939
 N    2.956620631515   -1.049786192853   -0.125825835410
 H    3.611156836847   -0.517982968453    0.441814941320
 H    3.035425718906   -2.050486336788    0.035757502579
 C    0.168815297548    1.416560365872   -0.041359905840
 O    0.141234928443    2.644733450649   -0.045448034268
 C   -0.903969828428    0.442866976598   -0.035158707900
 N   -2.275043130197    0.629198021911   -0.035233892616
 C   -2.768566624708   -0.609404992134   -0.045563992281
 H   -3.826064537976   -0.863551613966   -0.048510636707
 H   -1.907954800456   -2.584399207230   -0.060265535106
LI    1.437544761624    0.727113960951    1.045640371431
