17

 N   -1.782972269843   -1.577774809658   -0.064921440576
 C   -0.572784202999   -0.922568605982   -0.060959816608
 N    0.660628211304   -1.521246300444   -0.048921531703
 C    1.631051411360   -0.631070158833   -0.060793988676
 N    1.427974573947    0.730567974681   -0.067629149018
 H    2.231801699198    1.350528514436   -0.149617171440
 N    2.956506165597   -1.049744880513   -0.139141291911
 H    3.611042370929   -0.517941656113    0.428499484819
 H    3.035311252988   -2.050445024448    0.022442046078
 C    0.168700831630    1.416601678212   -0.054675362341
 O    0.141120462525    2.644774762989   -0.058763490769
 C   -0.904084294346    0.442908288938   -0.048474164401
 N   -2.275157596115    0.629239334251   -0.048549349117
 C   -2.768681090626   -0.609363679794   -0.058879448782
 H   -3.826179003894   -0.863510301626   -0.061826093208
 H   -1.908069266374   -2.584357894890   -0.073580991607
LI    1.440009128913    0.726224536549    1.332312386915
