17

 N   -1.783048580455   -1.577747268097   -0.073798411578
 C   -0.572860513611   -0.922541064421   -0.069836787610
 N    0.660551900692   -1.521218758883   -0.057798502705
 C    1.630975100748   -0.631042617272   -0.069670959678
 N    1.427898263335    0.730595516242   -0.076506120020
 H    2.231725388586    1.350556055997   -0.158494142442
 N    2.956429854985   -1.049717338952   -0.148018262913
 H    3.610966060317   -0.517914114552    0.419622513817
 H    3.035234942376   -2.050417482887    0.013565075076
 C    0.168624521018    1.416629219773   -0.063552333343
 O    0.141044151913    2.644802304550   -0.067640461771
 C   -0.904160604958    0.442935830499   -0.057351135403
 N   -2.275233906727    0.629266875812   -0.057426320119
 C   -2.768757401238   -0.609336138233   -0.067756419784
 H   -3.826255314506   -0.863482760065   -0.070703064210
 H   -1.908145576986   -2.584330353329   -0.082457962609
LI    1.441652040439    0.725631586948    1.523427063905
