17

 N   -1.783086735761   -1.577733497317   -0.078236897078
 C   -0.572898668917   -0.922527293641   -0.074275273110
 N    0.660513745386   -1.521204988103   -0.062236988205
 C    1.630936945442   -0.631028846492   -0.074109445178
 N    1.427860108029    0.730609287022   -0.080944605520
 H    2.231687233280    1.350569826777   -0.162932627942
 N    2.956391699679   -1.049703568172   -0.152456748413
 H    3.610927905011   -0.517900343772    0.415184028317
 H    3.035196787070   -2.050403712107    0.009126589576
 C    0.168586365712    1.416642990553   -0.067990818843
 O    0.141005996607    2.644816075330   -0.072078947271
 C   -0.904198760264    0.442949601279   -0.061789620903
 N   -2.275272062033    0.629280646592   -0.061864805619
 C   -2.768795556544   -0.609322367453   -0.072194905284
 H   -3.826293469812   -0.863468989285   -0.075141549710
 H   -1.908183732292   -2.584316582549   -0.086896448109
LI    1.442473496202    0.725335112147    1.618984402399
