17

 N   -1.783277512291   -1.577664643416   -0.100429324581
 C   -0.573089445447   -0.922458439740   -0.096467700613
 N    0.660322968856   -1.521136134202   -0.084429415708
 C    1.630746168912   -0.630959992591   -0.096301872681
 N    1.427669331499    0.730678140923   -0.103137033023
 H    2.231496456750    1.350638680678   -0.185125055445
 N    2.956200923149   -1.049634714271   -0.174649175916
 H    3.610737128481   -0.517831489871    0.392991600814
 H    3.035006010540   -2.050334858206   -0.013065837927
 C    0.168395589182    1.416711844454   -0.090183246346
 O    0.140815220077    2.644884929231   -0.094271374774
 C   -0.904389536794    0.443018455180   -0.083982048406
 N   -2.275462838563    0.629349500493   -0.084057233122
 C   -2.768986333074   -0.609253513552   -0.094387332787
 H   -3.826484246342   -0.863400135384   -0.097333977213
 H   -1.908374508822   -2.584247728648   -0.109088875612
LI    1.446580775016    0.723852738143    2.096771094873
