17

 N   -1.783353822903   -1.577637101856   -0.109306295582
 C   -0.573165756059   -0.922430898180   -0.105344671614
 N    0.660246658244   -1.521108592642   -0.093306386709
 C    1.630669858300   -0.630932451031   -0.105178843682
 N    1.427593020887    0.730705682483   -0.112014004024
 H    2.231420146138    1.350666222238   -0.194002026446
 N    2.956124612537   -1.049607172711   -0.183526146917
 H    3.610660817869   -0.517803948311    0.384114629813
 H    3.034929699928   -2.050307316646   -0.021942808928
 C    0.168319278570    1.416739386014   -0.099060217347
 O    0.140738909465    2.644912470791   -0.103148345775
 C   -0.904465847406    0.443045996740   -0.092859019407
 N   -2.275539149175    0.629377042053   -0.092934204123
 C   -2.769062643686   -0.609225971992   -0.103264303788
 H   -3.826560556954   -0.863372593824   -0.106210948214
 H   -1.908450819434   -2.584220187088   -0.117965846613
LI    1.448223686542    0.723259788542    2.287885771862
