17

 N   -1.783430133515   -1.577609560295   -0.118183266583
 C   -0.573242066671   -0.922403356619   -0.114221642615
 N    0.660170347632   -1.521081051081   -0.102183357710
 C    1.630593547688   -0.630904909470   -0.114055814683
 N    1.427516710275    0.730733224044   -0.120890975025
 H    2.231343835526    1.350693763799   -0.202878997447
 N    2.956048301925   -1.049579631150   -0.192403117918
 H    3.610584507257   -0.517776406750    0.375237658812
 H    3.034853389316   -2.050279775085   -0.030819779929
 C    0.168242967958    1.416766927575   -0.107937188348
 O    0.140662598853    2.644940012352   -0.112025316776
 C   -0.904542158018    0.443073538301   -0.101735990408
 N   -2.275615459787    0.629404583614   -0.101811175124
 C   -2.769138954298   -0.609198430431   -0.112141274789
 H   -3.826636867566   -0.863345052263   -0.115087919215
 H   -1.908527130046   -2.584192645527   -0.126842817614
LI    1.449866598068    0.722666838941    2.479000448852
