17

 N   -1.783544599433   -1.577568247955   -0.131498723084
 C   -0.573356532589   -0.922362044279   -0.127537099116
 N    0.660055881714   -1.521039738741   -0.115498814211
 C    1.630479081770   -0.630863597130   -0.127371271184
 N    1.427402244357    0.730774536384   -0.134206431526
 H    2.231229369608    1.350735076139   -0.216194453948
 N    2.955933836007   -1.049538318810   -0.205718574419
 H    3.610470041339   -0.517735094410    0.361922202311
 H    3.034738923398   -2.050238462745   -0.044135236430
 C    0.168128502040    1.416808239915   -0.121252644849
 O    0.140548132935    2.644981324692   -0.125340773277
 C   -0.904656623936    0.443114850641   -0.115051446909
 N   -2.275729925705    0.629445895954   -0.115126631625
 C   -2.769253420216   -0.609157118091   -0.125456731290
 H   -3.826751333484   -0.863303739923   -0.128403375716
 H   -1.908641595964   -2.584151333187   -0.140158274115
LI    1.452330965357    0.721777414539    2.765672464336
