17

 N   -1.783659065351   -1.577526935614   -0.144814179586
 C   -0.573470998507   -0.922320731938   -0.140852555618
 N    0.659941415796   -1.520998426400   -0.128814270713
 C    1.630364615852   -0.630822284789   -0.140686727686
 N    1.427287778439    0.730815848725   -0.147521888028
 H    2.231114903690    1.350776388480   -0.229509910450
 N    2.955819370089   -1.049497006469   -0.219034030921
 H    3.610355575421   -0.517693782069    0.348606745809
 H    3.034624457480   -2.050197150404   -0.057450692932
 C    0.168014036122    1.416849552256   -0.134568101351
 O    0.140433667017    2.645022637033   -0.138656229779
 C   -0.904771089854    0.443156162982   -0.128366903411
 N   -2.275844391623    0.629487208295   -0.128442088127
 C   -2.769367886134   -0.609115805750   -0.138772187792
 H   -3.826865799402   -0.863262427582   -0.141718832218
 H   -1.908756061882   -2.584110020846   -0.153473730617
LI    1.454795332646    0.720887990137    3.052344479820
