17

 N   -1.783811686575   -1.577471852493   -0.162568121588
 C   -0.573623619731   -0.922265648817   -0.158606497620
 N    0.659788794572   -1.520943343279   -0.146568212715
 C    1.630211994628   -0.630767201668   -0.158440669688
 N    1.427135157215    0.730870931846   -0.165275830030
 H    2.230962282466    1.350831471601   -0.247263852452
 N    2.955666748865   -1.049441923348   -0.236787972923
 H    3.610202954197   -0.517638698948    0.330852803807
 H    3.034471836256   -2.050142067283   -0.075204634934
 C    0.167861414898    1.416904635377   -0.152322043353
 O    0.140281045793    2.645077720154   -0.156410171781
 C   -0.904923711078    0.443211246103   -0.146120845413
 N   -2.275997012847    0.629542291416   -0.146196030129
 C   -2.769520507358   -0.609060722629   -0.156526129794
 H   -3.827018420626   -0.863207344461   -0.159472774220
 H   -1.908908683106   -2.584054937725   -0.171227672619
LI    1.458081155698    0.719702090934    3.434573833799
