17

 N   -1.783849841881   -1.577458081713   -0.167006607088
 C   -0.573661775037   -0.922251878037   -0.163044983120
 N    0.659750639266   -1.520929572499   -0.151006698215
 C    1.630173839322   -0.630753430888   -0.162879155188
 N    1.427097001909    0.730884702626   -0.169714315530
 H    2.230924127160    1.350845242381   -0.251702337952
 N    2.955628593559   -1.049428152568   -0.241226458423
 H    3.610164798891   -0.517624928168    0.326414318307
 H    3.034433680950   -2.050128296503   -0.079643120434
 C    0.167823259592    1.416918406157   -0.156760528853
 O    0.140242890487    2.645091490934   -0.160848657281
 C   -0.904961866384    0.443225016883   -0.150559330913
 N   -2.276035168153    0.629556062196   -0.150634515629
 C   -2.769558662664   -0.609046951849   -0.160964615294
 H   -3.827056575932   -0.863193573681   -0.163911259720
 H   -1.908946838412   -2.584041166945   -0.175666158119
LI    1.458902611461    0.719405616133    3.530131172294
