17

 N   -1.784002463106   -1.577402998593   -0.184760549090
 C   -0.573814396262   -0.922196794917   -0.180798925122
 N    0.659598018041   -1.520874489379   -0.168760640217
 C    1.630021218097   -0.630698347768   -0.180633097190
 N    1.426944380684    0.730939785746   -0.187468257532
 H    2.230771505935    1.350900325501   -0.269456279954
 N    2.955475972334   -1.049373069448   -0.258980400425
 H    3.610012177666   -0.517569845048    0.308660376305
 H    3.034281059725   -2.050073213383   -0.097397062436
 C    0.167670638367    1.416973489277   -0.174514470855
 O    0.140090269262    2.645146574054   -0.178602599283
 C   -0.905114487609    0.443280100003   -0.168313272915
 N   -2.276187789378    0.629611145316   -0.168388457631
 C   -2.769711283889   -0.608991868729   -0.178718557296
 H   -3.827209197157   -0.863138490561   -0.181665201722
 H   -1.909099459637   -2.583986083825   -0.193420100121
LI    1.462188434513    0.718219716930    3.912360526273
