17

 N   -1.784116929024   -1.577361686252   -0.198076005592
 C   -0.573928862180   -0.922155482576   -0.194114381624
 N    0.659483552123   -1.520833177038   -0.182076096719
 C    1.629906752179   -0.630657035427   -0.193948553692
 N    1.426829914766    0.730981098087   -0.200783714034
 H    2.230657040017    1.350941637842   -0.282771736456
 N    2.955361506416   -1.049331757107   -0.272295856927
 H    3.609897711748   -0.517528532707    0.295344919803
 H    3.034166593807   -2.050031901042   -0.110712518938
 C    0.167556172449    1.417014801618   -0.187829927357
 O    0.139975803344    2.645187886395   -0.191918055785
 C   -0.905228953527    0.443321412344   -0.181628729417
 N   -2.276302255296    0.629652457657   -0.181703914133
 C   -2.769825749807   -0.608950556388   -0.192034013798
 H   -3.827323663075   -0.863097178220   -0.194980658224
 H   -1.909213925555   -2.583944771484   -0.206735556623
LI    1.464652801801    0.717330292528    4.199032541757
