17

 N   -1.784231394942   -1.577320373911   -0.211391462093
 C   -0.574043328098   -0.922114170235   -0.207429838125
 N    0.659369086205   -1.520791864697   -0.195391553220
 C    1.629792286261   -0.630615723086   -0.207264010193
 N    1.426715448848    0.731022410428   -0.214099170535
 H    2.230542574099    1.350982950183   -0.296087192957
 N    2.955247040498   -1.049290444766   -0.285611313428
 H    3.609783245830   -0.517487220366    0.282029463302
 H    3.034052127889   -2.049990588701   -0.124027975439
 C    0.167441706531    1.417056113959   -0.201145383858
 O    0.139861337426    2.645229198736   -0.205233512286
 C   -0.905343419445    0.443362724685   -0.194944185918
 N   -2.276416721214    0.629693769998   -0.195019370634
 C   -2.769940215725   -0.608909244047   -0.205349470299
 H   -3.827438128993   -0.863055865879   -0.208296114725
 H   -1.909328391473   -2.583903459143   -0.220051013124
LI    1.467117169090    0.716440868126    4.485704557241
