17

 N   -1.784269550248   -1.577306603131   -0.215829947594
 C   -0.574081483404   -0.922100399455   -0.211868323626
 N    0.659330930899   -1.520778093917   -0.199830038721
 C    1.629754130955   -0.630601952306   -0.211702495694
 N    1.426677293542    0.731036181208   -0.218537656036
 H    2.230504418793    1.350996720963   -0.300525678458
 N    2.955208885192   -1.049276673986   -0.290049798929
 H    3.609745090524   -0.517473449586    0.277590977801
 H    3.034013972583   -2.049976817921   -0.128466460940
 C    0.167403551225    1.417069884739   -0.205583869359
 O    0.139823182120    2.645242969516   -0.209671997787
 C   -0.905381574751    0.443376495465   -0.199382671419
 N   -2.276454876520    0.629707540778   -0.199457856135
 C   -2.769978371031   -0.608895473267   -0.209787955800
 H   -3.827476284299   -0.863042095099   -0.212734600226
 H   -1.909366546779   -2.583889688363   -0.224489498625
LI    1.467938624853    0.716144393325    4.581261895736
