17

 N   -1.784384016166   -1.577265290791   -0.229145404096
 C   -0.574195949322   -0.922059087115   -0.225183780128
 N    0.659216464981   -1.520736781577   -0.213145495223
 C    1.629639665037   -0.630560639966   -0.225017952196
 N    1.426562827624    0.731077493548   -0.231853112538
 H    2.230389952875    1.351038033303   -0.313841134960
 N    2.955094419274   -1.049235361646   -0.303365255431
 H    3.609630624606   -0.517432137246    0.264275521299
 H    3.033899506665   -2.049935505581   -0.141781917442
 C    0.167289085307    1.417111197079   -0.218899325861
 O    0.139708716202    2.645284281856   -0.222987454289
 C   -0.905496040669    0.443417807805   -0.212698127921
 N   -2.276569342438    0.629748853118   -0.212773312637
 C   -2.770092836949   -0.608854160927   -0.223103412302
 H   -3.827590750217   -0.863000782759   -0.226050056728
 H   -1.909481012697   -2.583848376023   -0.237804955127
LI    1.470402992142    0.715254968923    4.867933911220
