17

 N   -1.784422171472   -1.577251520010   -0.233583889596
 C   -0.574234104628   -0.922045316334   -0.229622265628
 N    0.659178309675   -1.520723010796   -0.217583980723
 C    1.629601509731   -0.630546869185   -0.229456437696
 N    1.426524672318    0.731091264329   -0.236291598038
 H    2.230351797569    1.351051804084   -0.318279620460
 N    2.955056263968   -1.049221590865   -0.307803740931
 H    3.609592469300   -0.517418366465    0.259837035799
 H    3.033861351359   -2.049921734800   -0.146220402942
 C    0.167250930001    1.417124967860   -0.223337811361
 O    0.139670560896    2.645298052637   -0.227425939789
 C   -0.905534195975    0.443431578586   -0.217136613421
 N   -2.276607497744    0.629762623899   -0.217211798137
 C   -2.770130992255   -0.608840390146   -0.227541897802
 H   -3.827628905523   -0.862987011978   -0.230488542228
 H   -1.909519168003   -2.583834605242   -0.242243440627
LI    1.471224447905    0.714958494123    4.963491249715
