17

 N   -1.784460326778   -1.577237749230   -0.238022375097
 C   -0.574272259934   -0.922031545554   -0.234060751129
 N    0.659140154369   -1.520709240016   -0.222022466224
 C    1.629563354425   -0.630533098405   -0.233894923197
 N    1.426486517012    0.731105035109   -0.240730083539
 H    2.230313642263    1.351065574864   -0.322718105961
 N    2.955018108662   -1.049207820085   -0.312242226432
 H    3.609554313994   -0.517404595685    0.255398550298
 H    3.033823196053   -2.049907964020   -0.150658888443
 C    0.167212774695    1.417138738640   -0.227776296862
 O    0.139632405590    2.645311823417   -0.231864425290
 C   -0.905572351281    0.443445349366   -0.221575098922
 N   -2.276645653050    0.629776394679   -0.221650283638
 C   -2.770169147561   -0.608826619366   -0.231980383303
 H   -3.827667060829   -0.862973241198   -0.234927027729
 H   -1.909557323309   -2.583820834462   -0.246681926128
LI    1.472045903668    0.714662019322    5.059048588210
