17

 N   -1.784651103308   -1.577168895329   -0.260214802599
 C   -0.574463036464   -0.921962691653   -0.256253178631
 N    0.658949377839   -1.520640386115   -0.244214893726
 C    1.629372577895   -0.630464244504   -0.256087350699
 N    1.426295740482    0.731173889010   -0.262922511041
 H    2.230122865733    1.351134428765   -0.344910533463
 N    2.954827332132   -1.049138966184   -0.334434653934
 H    3.609363537464   -0.517335741784    0.233206122796
 H    3.033632419523   -2.049839110119   -0.172851315945
 C    0.167021998165    1.417207592541   -0.249968724364
 O    0.139441629060    2.645380677318   -0.254056852792
 C   -0.905763127811    0.443514203267   -0.243767526424
 N   -2.276836429580    0.629845248580   -0.243842711140
 C   -2.770359924091   -0.608757765465   -0.254172810805
 H   -3.827857837359   -0.862904387297   -0.257119455231
 H   -1.909748099839   -2.583751980561   -0.268874353630
LI    1.476153182483    0.713179645319    5.536835280684
