17

 N   -1.784727413920   -1.577141353769   -0.269091773600
 C   -0.574539347076   -0.921935150093   -0.265130149632
 N    0.658873067227   -1.520612844555   -0.253091864727
 C    1.629296267283   -0.630436702944   -0.264964321700
 N    1.426219429870    0.731201430570   -0.271799482042
 H    2.230046555121    1.351161970325   -0.353787504464
 N    2.954751021520   -1.049111424624   -0.343311624935
 H    3.609287226852   -0.517308200224    0.224329151795
 H    3.033556108911   -2.049811568559   -0.181728286946
 C    0.166945687553    1.417235134101   -0.258845695365
 O    0.139365318448    2.645408218878   -0.262933823793
 C   -0.905839438423    0.443541744827   -0.252644497425
 N   -2.276912740192    0.629872790140   -0.252719682141
 C   -2.770436234703   -0.608730223905   -0.263049781806
 H   -3.827934147971   -0.862876845737   -0.265996426232
 H   -1.909824410451   -2.583724439001   -0.277751324631
LI    1.477796094009    0.712586695717    5.727949957673
