17

 N   -1.784803724532   -1.577113812208   -0.277968744601
 C   -0.574615657688   -0.921907608532   -0.274007120633
 N    0.658796756615   -1.520585302994   -0.261968835728
 C    1.629219956671   -0.630409161383   -0.273841292701
 N    1.426143119258    0.731228972131   -0.280676453043
 H    2.229970244509    1.351189511886   -0.362664475465
 N    2.954674710908   -1.049083883063   -0.352188595936
 H    3.609210916240   -0.517280658663    0.215452180794
 H    3.033479798299   -2.049784026998   -0.190605257947
 C    0.166869376941    1.417262675662   -0.267722666366
 O    0.139289007836    2.645435760439   -0.271810794794
 C   -0.905915749035    0.443569286388   -0.261521468426
 N   -2.276989050804    0.629900331701   -0.261596653142
 C   -2.770512545315   -0.608702682344   -0.271926752807
 H   -3.828010458583   -0.862849304176   -0.274873397233
 H   -1.909900721063   -2.583696897440   -0.286628295632
LI    1.479439005535    0.711993746116    5.919064634662
