17

 N   -1.784918190450   -1.577072499868   -0.291284201103
 C   -0.574730123606   -0.921866296192   -0.287322577135
 N    0.658682290697   -1.520543990654   -0.275284292230
 C    1.629105490753   -0.630367849043   -0.287156749203
 N    1.426028653340    0.731270284471   -0.293991909545
 H    2.229855778591    1.351230824226   -0.375979931967
 N    2.954560244990   -1.049042570723   -0.365504052438
 H    3.609096450322   -0.517239346323    0.202136724292
 H    3.033365332381   -2.049742714658   -0.203920714449
 C    0.166754911023    1.417303988002   -0.281038122868
 O    0.139174541918    2.645477072779   -0.285126251296
 C   -0.906030214953    0.443610598728   -0.274836924928
 N   -2.277103516722    0.629941644041   -0.274912109644
 C   -2.770627011233   -0.608661370004   -0.285242209309
 H   -3.828124924501   -0.862807991836   -0.288188853735
 H   -1.910015186981   -2.583655585100   -0.299943752134
LI    1.481903372823    0.711104321714    6.205736650147
