17

 N   -1.784994501062   -1.577044958308   -0.300161172104
 C   -0.574806434218   -0.921838754632   -0.296199548136
 N    0.658605980085   -1.520516449094   -0.284161263231
 C    1.629029180141   -0.630340307483   -0.296033720204
 N    1.425952342728    0.731297826031   -0.302868880546
 H    2.229779467979    1.351258365786   -0.384856902968
 N    2.954483934378   -1.049015029163   -0.374381023439
 H    3.609020139710   -0.517211804763    0.193259753291
 H    3.033289021769   -2.049715173098   -0.212797685450
 C    0.166678600411    1.417331529562   -0.289915093869
 O    0.139098231306    2.645504614339   -0.294003222297
 C   -0.906106525565    0.443638140288   -0.283713895929
 N   -2.277179827334    0.629969185601   -0.283789080645
 C   -2.770703321845   -0.608633828444   -0.294119180310
 H   -3.828201235113   -0.862780450276   -0.297065824736
 H   -1.910091497593   -2.583628043540   -0.308820723135
LI    1.483546284349    0.710511372112    6.396851327136
