17

 N   -1.785032656368   -1.577031187527   -0.304599657604
 C   -0.574844589524   -0.921824983851   -0.300638033636
 N    0.658567824779   -1.520502678313   -0.288599748731
 C    1.628991024835   -0.630326536702   -0.300472205704
 N    1.425914187422    0.731311596812   -0.307307366046
 H    2.229741312673    1.351272136567   -0.389295388468
 N    2.954445779072   -1.049001258382   -0.378819508939
 H    3.608981984404   -0.517198033982    0.188821267791
 H    3.033250866463   -2.049701402317   -0.217236170950
 C    0.166640445105    1.417345300343   -0.294353579369
 O    0.139060076000    2.645518385120   -0.298441707797
 C   -0.906144680871    0.443651911069   -0.288152381429
 N   -2.277217982640    0.629982956382   -0.288227566145
 C   -2.770741477151   -0.608620057663   -0.298557665810
 H   -3.828239390419   -0.862766679495   -0.301504310236
 H   -1.910129652899   -2.583614272759   -0.313259208635
LI    1.484367740112    0.710214897312    6.492408665631
