17

 N   -1.785070811674   -1.577017416747   -0.309038143105
 C   -0.574882744830   -0.921811213071   -0.305076519137
 N    0.658529669473   -1.520488907533   -0.293038234232
 C    1.628952869529   -0.630312765922   -0.304910691205
 N    1.425876032116    0.731325367592   -0.311745851547
 H    2.229703157367    1.351285907347   -0.393733873969
 N    2.954407623766   -1.048987487602   -0.383257994440
 H    3.608943829098   -0.517184263202    0.184382782290
 H    3.033212711157   -2.049687631537   -0.221674656451
 C    0.166602289799    1.417359071123   -0.298792064870
 O    0.139021920694    2.645532155900   -0.302880193298
 C   -0.906182836177    0.443665681849   -0.292590866930
 N   -2.277256137946    0.629996727162   -0.292666051646
 C   -2.770779632457   -0.608606286883   -0.302996151311
 H   -3.828277545725   -0.862752908715   -0.305942795737
 H   -1.910167808205   -2.583600501979   -0.317697694136
LI    1.485189195875    0.709918422511    6.587966004126
