17

 N   -1.785147122286   -1.576989875187   -0.317915114106
 C   -0.574959055442   -0.921783671511   -0.313953490138
 N    0.658453358861   -1.520461365973   -0.301915205233
 C    1.628876558917   -0.630285224362   -0.313787662206
 N    1.425799721504    0.731352909152   -0.320622822548
 H    2.229626846755    1.351313448907   -0.402610844970
 N    2.954331313154   -1.048959946042   -0.392134965441
 H    3.608867518486   -0.517156721642    0.175505811289
 H    3.033136400545   -2.049660089977   -0.230551627452
 C    0.166525979187    1.417386612683   -0.307669035871
 O    0.138945610082    2.645559697460   -0.311757164299
 C   -0.906259146789    0.443693223409   -0.301467837931
 N   -2.277332448558    0.630024268722   -0.301543022647
 C   -2.770855943069   -0.608578745323   -0.311873122312
 H   -3.828353856337   -0.862725367155   -0.314819766738
 H   -1.910244118817   -2.583572960419   -0.326574665137
LI    1.486832107401    0.709325472910    6.779080681115
