17

 N   -1.785261588204   -1.576948562846   -0.331230570607
 C   -0.575073521360   -0.921742359170   -0.327268946639
 N    0.658338892943   -1.520420053632   -0.315230661734
 C    1.628762092999   -0.630243912021   -0.327103118707
 N    1.425685255586    0.731394221493   -0.333938279049
 H    2.229512380837    1.351354761248   -0.415926301471
 N    2.954216847236   -1.048918633701   -0.405450421942
 H    3.608753052568   -0.517115409301    0.162190354788
 H    3.033021934627   -2.049618777636   -0.243867083953
 C    0.166411513269    1.417427925024   -0.320984492372
 O    0.138831144164    2.645601009801   -0.325072620800
 C   -0.906373612707    0.443734535750   -0.314783294432
 N   -2.277446914476    0.630065581063   -0.314858479148
 C   -2.770970408987   -0.608537432982   -0.325188578813
 H   -3.828468322255   -0.862684054814   -0.328135223239
 H   -1.910358584735   -2.583531648078   -0.339890121638
LI    1.489296474690    0.708436048508    7.065752696599
