17

 N   -1.785604985959   -1.576824625824   -0.371176940112
 C   -0.575416919115   -0.921618422148   -0.367215316144
 N    0.657995495188   -1.520296116610   -0.355177031239
 C    1.628418695244   -0.630119974999   -0.367049488212
 N    1.425341857831    0.731518158515   -0.373884648554
 H    2.229168983082    1.351478698270   -0.455872670976
 N    2.953873449481   -1.048794696679   -0.445396791447
 H    3.608409654813   -0.516991472279    0.122243985283
 H    3.032678536872   -2.049494840614   -0.283813453458
 C    0.166068115514    1.417551862046   -0.360930861877
 O    0.138487746409    2.645724946823   -0.365018990305
 C   -0.906717010462    0.443858472772   -0.354729663937
 N   -2.277790312231    0.630189518085   -0.354804848653
 C   -2.771313806742   -0.608413495960   -0.365134948318
 H   -3.828811720010   -0.862560117792   -0.368081592744
 H   -1.910701982490   -2.583407711056   -0.379836491143
LI    1.496689576557    0.705767775301    7.925768743052
