17

 N   -1.785681296571   -1.576797084264   -0.380053911113
 C   -0.575493229727   -0.921590880588   -0.376092287145
 N    0.657919184576   -1.520268575050   -0.364054002240
 C    1.628342384632   -0.630092433439   -0.375926459213
 N    1.425265547219    0.731545700075   -0.382761619555
 H    2.229092672470    1.351506239830   -0.464749641977
 N    2.953797138869   -1.048767155119   -0.454273762448
 H    3.608333344201   -0.516963930719    0.113367014282
 H    3.032602226260   -2.049467299054   -0.292690424459
 C    0.165991804902    1.417579403606   -0.369807832878
 O    0.138411435797    2.645752488383   -0.373895961306
 C   -0.906793321074    0.443886014332   -0.363606634938
 N   -2.277866622843    0.630217059645   -0.363681819654
 C   -2.771390117354   -0.608385954400   -0.374011919319
 H   -3.828888030622   -0.862532576232   -0.376958563745
 H   -1.910778293102   -2.583380169496   -0.388713462144
LI    1.498332488082    0.705174825700    8.116883420041
