17

 N   -1.785757607183   -1.576769542704   -0.388930882114
 C   -0.575569540339   -0.921563339028   -0.384969258146
 N    0.657842873964   -1.520241033490   -0.372930973241
 C    1.628266074020   -0.630064891879   -0.384803430214
 N    1.425189236607    0.731573241635   -0.391638590556
 H    2.229016361858    1.351533781390   -0.473626612978
 N    2.953720828257   -1.048739613559   -0.463150733449
 H    3.608257033589   -0.516936389159    0.104490043281
 H    3.032525915648   -2.049439757494   -0.301567395460
 C    0.165915494290    1.417606945166   -0.378684803879
 O    0.138335125185    2.645780029943   -0.382772932307
 C   -0.906869631686    0.443913555892   -0.372483605939
 N   -2.277942933455    0.630244601205   -0.372558790655
 C   -2.771466427966   -0.608358412840   -0.382888890320
 H   -3.828964341234   -0.862505034672   -0.385835534746
 H   -1.910854603714   -2.583352627936   -0.397590433145
LI    1.499975399608    0.704581876099    8.307998097031
