17

 N   -1.785833917795   -1.576742001143   -0.397807853115
 C   -0.575645850951   -0.921535797467   -0.393846229147
 N    0.657766563352   -1.520213491929   -0.381807944242
 C    1.628189763408   -0.630037350318   -0.393680401215
 N    1.425112925995    0.731600783196   -0.400515561557
 H    2.228940051246    1.351561322951   -0.482503583979
 N    2.953644517645   -1.048712071998   -0.472027704450
 H    3.608180722977   -0.516908847598    0.095613072280
 H    3.032449605036   -2.049412215933   -0.310444366461
 C    0.165839183678    1.417634486727   -0.387561774880
 O    0.138258814573    2.645807571504   -0.391649903308
 C   -0.906945942298    0.443941097453   -0.381360576940
 N   -2.278019244067    0.630272142766   -0.381435761656
 C   -2.771542738578   -0.608330871279   -0.391765861321
 H   -3.829040651846   -0.862477493111   -0.394712505747
 H   -1.910930914326   -2.583325086375   -0.406467404146
LI    1.501618311134    0.703988926497    8.499112774020
