17

 N   -1.785910228407   -1.576714459583   -0.406684824116
 C   -0.575722161563   -0.921508255907   -0.402723200148
 N    0.657690252740   -1.520185950369   -0.390684915243
 C    1.628113452796   -0.630009808758   -0.402557372216
 N    1.425036615383    0.731628324756   -0.409392532558
 H    2.228863740634    1.351588864511   -0.491380554980
 N    2.953568207033   -1.048684530438   -0.480904675451
 H    3.608104412365   -0.516881306038    0.086736101279
 H    3.032373294424   -2.049384674373   -0.319321337462
 C    0.165762873066    1.417662028287   -0.396438745881
 O    0.138182503961    2.645835113064   -0.400526874309
 C   -0.907022252910    0.443968639013   -0.390237547941
 N   -2.278095554679    0.630299684326   -0.390312732657
 C   -2.771619049190   -0.608303329719   -0.400642832322
 H   -3.829116962458   -0.862449951551   -0.403589476748
 H   -1.911007224938   -2.583297544815   -0.415344375147
LI    1.503261222660    0.703395976896    8.690227451010
