17

 N   -1.785986539019   -1.576686918023   -0.415561795117
 C   -0.575798472175   -0.921480714347   -0.411600171149
 N    0.657613942128   -1.520158408809   -0.399561886244
 C    1.628037142184   -0.629982267198   -0.411434343217
 N    1.424960304771    0.731655866316   -0.418269503559
 H    2.228787430022    1.351616406071   -0.500257525981
 N    2.953491896421   -1.048656988878   -0.489781646452
 H    3.608028101753   -0.516853764478    0.077859130278
 H    3.032296983812   -2.049357132813   -0.328198308463
 C    0.165686562454    1.417689569847   -0.405315716882
 O    0.138106193349    2.645862654624   -0.409403845310
 C   -0.907098563522    0.443996180573   -0.399114518942
 N   -2.278171865291    0.630327225886   -0.399189703658
 C   -2.771695359802   -0.608275788159   -0.409519803323
 H   -3.829193273070   -0.862422409991   -0.412466447749
 H   -1.911083535550   -2.583270003255   -0.424221346148
LI    1.504904134186    0.702803027294    8.881342127999
