17

 N   -1.786024694325   -1.576673147242   -0.420000280618
 C   -0.575836627481   -0.921466943566   -0.416038656650
 N    0.657575786822   -1.520144638028   -0.404000371745
 C    1.627998986878   -0.629968496417   -0.415872828718
 N    1.424922149465    0.731669637097   -0.422707989060
 H    2.228749274716    1.351630176852   -0.504696011482
 N    2.953453741115   -1.048643218097   -0.494220131953
 H    3.607989946447   -0.516839993697    0.073420644777
 H    3.032258828506   -2.049343362032   -0.332636793964
 C    0.165648407148    1.417703340628   -0.409754202383
 O    0.138068038043    2.645876425405   -0.413842330811
 C   -0.907136718828    0.444009951354   -0.403553004443
 N   -2.278210020597    0.630340996667   -0.403628189159
 C   -2.771733515108   -0.608262017378   -0.413958288824
 H   -3.829231428376   -0.862408639210   -0.416904933250
 H   -1.911121690856   -2.583256232474   -0.428659831649
LI    1.505725589949    0.702506552494    8.976899466494
