17

 N   -1.786062849631   -1.576659376462   -0.424438766118
 C   -0.575874782787   -0.921453172786   -0.420477142150
 N    0.657537631516   -1.520130867248   -0.408438857245
 C    1.627960831572   -0.629954725637   -0.420311314218
 N    1.424883994159    0.731683407877   -0.427146474560
 H    2.228711119410    1.351643947632   -0.509134496982
 N    2.953415585809   -1.048629447317   -0.498658617453
 H    3.607951791141   -0.516826222917    0.068982159277
 H    3.032220673200   -2.049329591252   -0.337075279464
 C    0.165610251842    1.417717111408   -0.414192687883
 O    0.138029882737    2.645890196185   -0.418280816311
 C   -0.907174874134    0.444023722134   -0.407991489943
 N   -2.278248175903    0.630354767447   -0.408066674659
 C   -2.771771670414   -0.608248246598   -0.418396774324
 H   -3.829269583682   -0.862394868430   -0.421343418750
 H   -1.911159846162   -2.583242461694   -0.433098317149
LI    1.506547045712    0.702210077693    9.072456804989
