17

 N   -1.786101004937   -1.576645605682   -0.428877251619
 C   -0.575912938093   -0.921439402006   -0.424915627651
 N    0.657499476210   -1.520117096468   -0.412877342746
 C    1.627922676266   -0.629940954857   -0.424749799719
 N    1.424845838853    0.731697178657   -0.431584960061
 H    2.228672964104    1.351657718412   -0.513572982483
 N    2.953377430503   -1.048615676537   -0.503097102954
 H    3.607913635835   -0.516812452137    0.064543673776
 H    3.032182517894   -2.049315820472   -0.341513764965
 C    0.165572096536    1.417730882188   -0.418631173384
 O    0.137991727431    2.645903966965   -0.422719301812
 C   -0.907213029440    0.444037492914   -0.412429975444
 N   -2.278286331209    0.630368538227   -0.412505160160
 C   -2.771809825720   -0.608234475818   -0.422835259825
 H   -3.829307738988   -0.862381097650   -0.425781904251
 H   -1.911198001468   -2.583228690914   -0.437536802650
LI    1.507368501475    0.701913602892    9.168014143484
