28

 P    1.542837209616   -1.528171354827    1.069160590844
 O    0.422457209616   -1.195461354827    2.052100590844
 O    1.663427209616   -0.733841354827   -0.241329409156
 O    2.957497209616   -1.538231354827    1.918090590844
 O    1.477247209616   -3.117641354827    0.599030590844
 C    4.075697209616   -1.996871354827    1.126230590844
 H    4.984397209616   -1.729611354827    1.677410590844
 H    4.070327209616   -1.495661354827    0.145940590844
 H    4.019357209616   -3.085321354827    0.976930590844
 C    1.417087209616   -4.034601354827    1.708540590844
 H    1.228397209616   -5.025451354827    1.280800590844
 H    0.589457209616   -3.770251354827    2.384880590844
 H    2.368207209616   -4.041941354827    2.261210590844
RB   -1.613882790384    0.000348645173    1.469050590844
RB    0.900157209616    0.706588645173   -1.963649409156
 P   -1.058011590036    1.047951788499   -0.733183679720
 O   -2.472669291406    1.058015104026   -1.582112615046
 O   -0.992411725414    2.637424680761   -0.263053136014
 O    0.062371243477    0.715242930457   -1.716124755802
 O   -1.178600155218    0.253621446212    0.577308332529
 C   -3.590870205931    1.516661510259   -0.790257137762
 H   -4.499571589394    1.249406810447   -1.341428341217
 H   -3.585503042007    1.015452758352    0.190040776478
 H   -3.534528806573    2.605115273427   -0.640951879099
 C   -0.932259255416    3.554385067715   -1.372561558114
 H   -0.743567759561    4.545231284281   -0.944824893201
 H   -0.104621335984    3.290034920890   -2.048908788973
 H   -1.883370374731    3.561724476008   -1.925231237309
