28

 P    1.599772622081   -1.584565495750    1.108615869622
 O    0.479392622081   -1.251855495750    2.091555869622
 O    1.720362622081   -0.790235495750   -0.201874130378
 O    3.014432622081   -1.594625495750    1.957545869622
 O    1.534182622081   -3.174035495750    0.638485869622
 C    4.132632622081   -2.053265495750    1.165685869622
 H    5.041332622081   -1.786005495750    1.716865869622
 H    4.127262622081   -1.552055495750    0.185395869622
 H    4.076292622081   -3.141715495750    1.016385869622
 C    1.474022622081   -4.090995495750    1.747995869622
 H    1.285332622081   -5.081845495750    1.320255869622
 H    0.646392622081   -3.826645495750    2.424335869622
 H    2.425142622081   -4.098335495750    2.300665869622
RB   -1.556947377919   -0.056045495750    1.508505869622
RB    0.957092622081    0.650194504250   -1.924194130378
 P   -1.192298577476    1.180962141211   -0.826242292914
 O   -2.606956278846    1.191025456738   -1.675171228241
 O   -1.126698712854    2.770435033473   -0.356111749208
 O   -0.071915743963    0.848253283169   -1.809183368997
 O   -1.312887142658    0.386631798923    0.484249719335
 C   -3.725157193371    1.649671862971   -0.883315750956
 H   -4.633858576834    1.382417163159   -1.434486954412
 H   -3.719790029447    1.148463111064    0.096982163284
 H   -3.668815794013    2.738125626139   -0.734010492293
 C   -1.066546242856    3.687395420427   -1.465620171308
 H   -0.877854747001    4.678241636992   -1.037883506395
 H   -0.238908323424    3.423045273602   -2.141967402167
 H   -2.017657362171    3.694734828720   -2.018289850503
