28

 P    1.694664976190   -1.678555730621    1.174374667585
 O    0.574284976190   -1.345845730621    2.157314667585
 O    1.815254976190   -0.884225730621   -0.136115332415
 O    3.109324976190   -1.688615730621    2.023304667585
 O    1.629074976190   -3.268025730621    0.704244667585
 C    4.227524976190   -2.147255730621    1.231444667585
 H    5.136224976190   -1.879995730621    1.782624667585
 H    4.222154976190   -1.646045730621    0.251154667585
 H    4.171184976190   -3.235705730621    1.082144667585
 C    1.568914976190   -4.184985730621    1.813754667585
 H    1.380224976190   -5.175835730621    1.386014667585
 H    0.741284976190   -3.920635730621    2.490094667585
 H    2.520034976190   -4.192325730621    2.366424667585
RB   -1.462055023810   -0.150035730621    1.574264667585
RB    1.051984976190    0.556204269379   -1.858435332415
 P   -1.416110223209    1.402646062397   -0.981339981571
 O   -2.830767924579    1.412709377924   -1.830268916898
 O   -1.350510358587    2.992118954660   -0.511209437865
 O   -0.295727389697    1.069937204355   -1.964281057654
 O   -1.536698788391    0.608315720110    0.329152030678
 C   -3.948968839104    1.871355784158   -1.038413439613
 H   -4.857670222568    1.604101084345   -1.589584643069
 H   -3.943601675181    1.370147032250   -0.058115525373
 H   -3.892627439746    2.959809547325   -0.889108180950
 C   -1.290357888590    3.909079341613   -1.620717859965
 H   -1.101666392734    4.899925558179   -1.192981195053
 H   -0.462719969157    3.644729194788   -2.297065090824
 H   -2.241469007904    3.916418749906   -2.173387539161
