28

 P    1.751600388655   -1.734949871544    1.213829946362
 O    0.631220388655   -1.402239871544    2.196769946362
 O    1.872190388655   -0.940619871544   -0.096660053638
 O    3.166260388655   -1.745009871544    2.062759946362
 O    1.686010388655   -3.324419871544    0.743699946362
 C    4.284460388655   -2.203649871544    1.270899946362
 H    5.193160388655   -1.936389871544    1.822079946362
 H    4.279090388655   -1.702439871544    0.290609946362
 H    4.228120388655   -3.292099871544    1.121599946362
 C    1.625850388655   -4.241379871544    1.853209946362
 H    1.437160388655   -5.232229871544    1.425469946362
 H    0.798220388655   -3.977029871544    2.529549946362
 H    2.576970388655   -4.248719871544    2.405879946362
RB   -1.405119611345   -0.206429871544    1.613719946362
RB    1.108920388655    0.499810128456   -1.818980053638
 P   -1.550397210649    1.535656415109   -1.074398594765
 O   -2.965054912019    1.545719730636   -1.923327530092
 O   -1.484797346027    3.125129307371   -0.604268051059
 O   -0.430014377137    1.202947557067   -2.057339670848
 O   -1.670985775831    0.741326072821    0.236093417483
 C   -4.083255826544    2.004366136869   -1.131472052807
 H   -4.991957210008    1.737111437057   -1.682643256263
 H   -4.077888662621    1.503157384962   -0.151174138568
 H   -4.026914427186    3.092819900037   -0.982166794144
 C   -1.424644876030    4.042089694325   -1.713776473159
 H   -1.235953380174    5.032935910890   -1.286039808247
 H   -0.597006956597    3.777739547500   -2.390123704018
 H   -2.375755995344    4.049429102618   -2.266446152355
