28

 P    1.770578859477   -1.753747918518    1.226981705955
 O    0.650198859477   -1.421037918518    2.209921705955
 O    1.891168859477   -0.959417918518   -0.083508294045
 O    3.185238859477   -1.763807918518    2.075911705955
 O    1.704988859477   -3.343217918518    0.756851705955
 C    4.303438859477   -2.222447918518    1.284051705955
 H    5.212138859477   -1.955187918518    1.835231705955
 H    4.298068859477   -1.721237918518    0.303761705955
 H    4.247098859477   -3.310897918518    1.134751705955
 C    1.644828859477   -4.260177918518    1.866361705955
 H    1.456138859477   -5.251027918518    1.438621705955
 H    0.817198859477   -3.995827918518    2.542701705955
 H    2.595948859477   -4.267517918518    2.419031705955
RB   -1.386141140523   -0.225227918518    1.626871705955
RB    1.127898859477    0.481012081482   -1.805828294045
 P   -1.595159539796    1.579993199346   -1.105418132497
 O   -3.009817241166    1.590056514873   -1.954347067824
 O   -1.529559675174    3.169466091609   -0.635287588791
 O   -0.474776706283    1.247284341305   -2.088359208580
 O   -1.715748104978    0.785662857059    0.205073879752
 C   -4.128018155690    2.048702921107   -1.162491590539
 H   -5.036719539154    1.781448221294   -1.713662793995
 H   -4.122650991767    1.547494169199   -0.182193676299
 H   -4.071676756333    3.137156684274   -1.013186331876
 C   -1.469407205176    4.086426478563   -1.744796010891
 H   -1.280715709321    5.077272695128   -1.317059345978
 H   -0.641769285744    3.822076331737   -2.421143241750
 H   -2.420518324491    4.093765886855   -2.297465690086
