28

 P    1.884449684407   -1.866536200364    1.305892263510
 O    0.764069684407   -1.533826200364    2.288832263510
 O    2.005039684407   -1.072206200364   -0.004597736490
 O    3.299109684407   -1.876596200364    2.154822263510
 O    1.818859684407   -3.456006200364    0.835762263510
 C    4.417309684407   -2.335236200364    1.362962263510
 H    5.326009684407   -2.067976200364    1.914142263510
 H    4.411939684407   -1.834026200364    0.382672263510
 H    4.360969684407   -3.423686200364    1.213662263510
 C    1.758699684407   -4.372966200364    1.945272263510
 H    1.570009684407   -5.363816200364    1.517532263510
 H    0.931069684407   -4.108616200364    2.621612263510
 H    2.709819684407   -4.380306200364    2.497942263510
RB   -1.272270315593   -0.338016200364    1.705782263510
RB    1.241769684407    0.368223799636   -1.726917736490
 P   -1.863733514676    1.846013904770   -1.291535358886
 O   -3.278391216046    1.856077220297   -2.140464294212
 O   -1.798133650054    3.435486797032   -0.821404815180
 O   -0.743350681163    1.513305046728   -2.274476434968
 O   -1.984322079858    1.051683562482    0.018956653363
 C   -4.396592130570    2.314723626530   -1.348608816927
 H   -5.305293514034    2.047468926718   -1.899780020383
 H   -4.391224966647    1.813514874623   -0.368310902688
 H   -4.340250731213    3.403177389698   -1.199303558264
 C   -1.737981180056    4.352447183986   -1.930913237279
 H   -1.549289684201    5.343293400551   -1.503176572367
 H   -0.910343260624    4.088097037161   -2.607260468138
 H   -2.689092299371    4.359786592279   -2.483582916475
