28

 P    1.941385096872   -1.922930341287    1.345347542288
 O    0.821005096872   -1.590220341287    2.328287542288
 O    2.061975096872   -1.128600341287    0.034857542288
 O    3.356045096872   -1.932990341287    2.194277542288
 O    1.875795096872   -3.512400341287    0.875217542288
 C    4.474245096872   -2.391630341287    1.402417542288
 H    5.382945096872   -2.124370341287    1.953597542288
 H    4.468875096872   -1.890420341287    0.422127542288
 H    4.417905096872   -3.480080341287    1.253117542288
 C    1.815635096872   -4.429360341287    1.984727542288
 H    1.626945096872   -5.420210341287    1.556987542288
 H    0.988005096872   -4.165010341287    2.661067542288
 H    2.766755096872   -4.436700341287    2.537397542288
RB   -1.215334903128   -0.394410341287    1.745237542288
RB    1.298705096872    0.311829658713   -1.687462457712
 P   -1.998020502116    1.979024257482   -1.384593972080
 O   -3.412678203486    1.989087573008   -2.233522907407
 O   -1.932420637494    3.568497149744   -0.914463428374
 O   -0.877637668603    1.646315399440   -2.367535048162
 O   -2.118609067298    1.184693915194   -0.074101959831
 C   -4.530879118010    2.447733979242   -1.441667430122
 H   -5.439580501474    2.180479279429   -1.992838633578
 H   -4.525511954087    1.946525227334   -0.461369515882
 H   -4.474537718653    3.536187742410   -1.292362171459
 C   -1.872268167496    4.485457536698   -2.023971850474
 H   -1.683576671641    5.476303753263   -1.596235185561
 H   -1.044630248064    4.221107389872   -2.700319081333
 H   -2.823379286811    4.492796944991   -2.576641529669
