28

 P    1.979342038516   -1.960526435235    1.371651061473
 O    0.858962038516   -1.627816435235    2.354591061473
 O    2.099932038516   -1.166196435235    0.061161061473
 O    3.394002038516   -1.970586435235    2.220581061473
 O    1.913752038516   -3.549996435235    0.901521061473
 C    4.512202038516   -2.429226435235    1.428721061473
 H    5.420902038516   -2.161966435235    1.979901061473
 H    4.506832038516   -1.928016435235    0.448431061473
 H    4.455862038516   -3.517676435235    1.279421061473
 C    1.853592038516   -4.466956435235    2.011031061473
 H    1.664902038516   -5.457806435235    1.583291061473
 H    1.025962038516   -4.202606435235    2.687371061473
 H    2.804712038516   -4.474296435235    2.563701061473
RB   -1.177377961484   -0.432006435235    1.771541061473
RB    1.336662038516    0.274233564765   -1.661158938527
 P   -2.087545160409    2.067697825956   -1.446633047543
 O   -3.502202861779    2.077761141483   -2.295561982869
 O   -2.021945295787    3.657170718218   -0.976502503837
 O   -0.967162326897    1.734988967914   -2.429574123625
 O   -2.208133725591    1.273367483669   -0.136141035294
 C   -4.620403776304    2.536407547716   -1.503706505585
 H   -5.529105159768    2.269152847904   -2.054877709040
 H   -4.615036612380    2.035198795809   -0.523408591345
 H   -4.564062376946    3.624861310884   -1.354401246922
 C   -1.961792825790    4.574131105172   -2.086010925937
 H   -1.773101329934    5.564977321738   -1.658274261024
 H   -1.134154906357    4.309780958347   -2.762358156796
 H   -2.912903945104    4.581470513465   -2.638680605132
