28

 P    1.998320509338   -1.979324482209    1.384802821065
 O    0.877940509338   -1.646614482209    2.367742821065
 O    2.118910509338   -1.184994482209    0.074312821065
 O    3.412980509338   -1.989384482209    2.233732821065
 O    1.932730509338   -3.568794482209    0.914672821065
 C    4.531180509338   -2.448024482209    1.441872821065
 H    5.439880509338   -2.180764482209    1.993052821065
 H    4.525810509338   -1.946814482209    0.461582821065
 H    4.474840509338   -3.536474482209    1.292572821065
 C    1.872570509338   -4.485754482209    2.024182821065
 H    1.683880509338   -5.476604482209    1.596442821065
 H    1.044940509338   -4.221404482209    2.700522821065
 H    2.823690509338   -4.493094482209    2.576852821065
RB   -1.158399490662   -0.450804482209    1.784692821065
RB    1.355640509338    0.255435517791   -1.648007178935
 P   -2.132307489556    2.112034610194   -1.477652585274
 O   -3.546965190926    2.122097925720   -2.326581520601
 O   -2.066707624934    3.701507502456   -1.007522041568
 O   -1.011924656043    1.779325752152   -2.460593661357
 O   -2.252896054738    1.317704267906   -0.167160573025
 C   -4.665166105450    2.580744331954   -1.534726043316
 H   -5.573867488914    2.313489632141   -2.085897246772
 H   -4.659798941527    2.079535580046   -0.554428129076
 H   -4.608824706093    3.669198095121   -1.385420784653
 C   -2.006555154936    4.618467889410   -2.117030463668
 H   -1.817863659081    5.609314105975   -1.689293798756
 H   -1.178917235504    4.354117742584   -2.793377694527
 H   -2.957666274251    4.625807297702   -2.669700142864
