28

 P    2.017298980159   -1.998122529184    1.397954580658
 O    0.896918980159   -1.665412529184    2.380894580658
 O    2.137888980159   -1.203792529184    0.087464580658
 O    3.431958980159   -2.008182529184    2.246884580658
 O    1.951708980159   -3.587592529184    0.927824580658
 C    4.550158980159   -2.466822529184    1.455024580658
 H    5.458858980159   -2.199562529184    2.006204580658
 H    4.544788980159   -1.965612529184    0.474734580658
 H    4.493818980159   -3.555272529184    1.305724580658
 C    1.891548980159   -4.504552529184    2.037334580658
 H    1.702858980159   -5.495402529184    1.609594580658
 H    1.063918980159   -4.240202529184    2.713674580658
 H    2.842668980159   -4.511892529184    2.590004580658
RB   -1.139421019841   -0.469602529184    1.797844580658
RB    1.374618980159    0.236637470816   -1.634855419342
 P   -2.177069818703    2.156371394431   -1.508672123006
 O   -3.591727520073    2.166434709957   -2.357601058332
 O   -2.111469954080    3.745844286693   -1.038541579300
 O   -1.056686985190    1.823662536389   -2.491613199088
 O   -2.297658383884    1.362041052143   -0.198180110757
 C   -4.709928434597    2.625081116191   -1.565745581048
 H   -5.618629818061    2.357826416378   -2.116916784503
 H   -4.704561270674    2.123872364283   -0.585447666808
 H   -4.653587035240    3.713534879359   -1.416440322385
 C   -2.051317484083    4.662804673647   -2.148050001399
 H   -1.862625988228    5.653650890212   -1.720313336487
 H   -1.223679564650    4.398454526822   -2.824397232259
 H   -3.002428603397    4.670144081940   -2.700719680595
