28

 P    2.055255921803   -2.035718623132    1.424258099843
 O    0.934875921803   -1.703008623132    2.407198099843
 O    2.175845921803   -1.241388623132    0.113768099843
 O    3.469915921803   -2.045778623132    2.273188099843
 O    1.989665921803   -3.625188623132    0.954128099843
 C    4.588115921803   -2.504418623132    1.481328099843
 H    5.496815921803   -2.237158623132    2.032508099843
 H    4.582745921803   -2.003208623132    0.501038099843
 H    4.531775921803   -3.592868623132    1.332028099843
 C    1.929505921803   -4.542148623132    2.063638099843
 H    1.740815921803   -5.532998623132    1.635898099843
 H    1.101875921803   -4.277798623132    2.739978099843
 H    2.880625921803   -4.549488623132    2.616308099843
RB   -1.101464078197   -0.507198623132    1.824148099843
RB    1.412575921803    0.199041376868   -1.608551900157
 P   -2.266594476996    2.245044962905   -1.570711198468
 O   -3.681252178366    2.255108278432   -2.419640133795
 O   -2.200994612374    3.834517855168   -1.100580654762
 O   -1.146211643483    1.912336104863   -2.553652274551
 O   -2.387183042178    1.450714620618   -0.260219186220
 C   -4.799453092890    2.713754684666   -1.627784656510
 H   -5.708154476354    2.446499984853   -2.178955859966
 H   -4.794085928967    2.212545932758   -0.647486742271
 H   -4.743111693533    3.802208447833   -1.478479397847
 C   -2.140842142376    4.751478242121   -2.210089076862
 H   -1.952150646521    5.742324458687   -1.782352411950
 H   -1.313204222944    4.487128095296   -2.886436307721
 H   -3.091953261691    4.758817650414   -2.762758756058
