28

 P    2.074234392624   -2.054516670106    1.437409859436
 O    0.953854392624   -1.721806670106    2.420349859436
 O    2.194824392624   -1.260186670106    0.126919859436
 O    3.488894392624   -2.064576670106    2.286339859436
 O    2.008644392624   -3.643986670106    0.967279859436
 C    4.607094392624   -2.523216670106    1.494479859436
 H    5.515794392624   -2.255956670106    2.045659859436
 H    4.601724392624   -2.022006670106    0.514189859436
 H    4.550754392624   -3.611666670106    1.345179859436
 C    1.948484392624   -4.560946670106    2.076789859436
 H    1.759794392624   -5.551796670106    1.649049859436
 H    1.120854392624   -4.296596670106    2.753129859436
 H    2.899604392624   -4.568286670106    2.629459859436
RB   -1.082485607376   -0.525996670106    1.837299859436
RB    1.431554392624    0.180243329894   -1.595400140564
 P   -2.311356806143    2.289381747143   -1.601730736200
 O   -3.726014507513    2.299445062669   -2.450659671527
 O   -2.245756941520    3.878854639405   -1.131600192494
 O   -1.190973972630    1.956672889101   -2.584671812283
 O   -2.431945371324    1.495051404855   -0.291238723951
 C   -4.844215422037    2.758091468903   -1.658804194242
 H   -5.752916805501    2.490836769090   -2.209975397698
 H   -4.838848258114    2.256882716995   -0.678506280002
 H   -4.787874022680    3.846545232071   -1.509498935579
 C   -2.185604471523    4.795815026359   -2.241108614594
 H   -1.996912975668    5.786661242924   -1.813371949681
 H   -1.357966552090    4.531464879533   -2.917455845453
 H   -3.136715590837    4.803154434651   -2.793778293789
