28

 P    2.093212863446   -2.073314717081    1.450561619028
 O    0.972832863446   -1.740604717081    2.433501619028
 O    2.213802863446   -1.278984717081    0.140071619028
 O    3.507872863446   -2.083374717081    2.299491619028
 O    2.027622863446   -3.662784717081    0.980431619028
 C    4.626072863446   -2.542014717081    1.507631619028
 H    5.534772863446   -2.274754717081    2.058811619028
 H    4.620702863446   -2.040804717081    0.527341619028
 H    4.569732863446   -3.630464717081    1.358331619028
 C    1.967462863446   -4.579744717081    2.089941619028
 H    1.778772863446   -5.570594717081    1.662201619028
 H    1.139832863446   -4.315394717081    2.766281619028
 H    2.918582863446   -4.587084717081    2.642611619028
RB   -1.063507136554   -0.544794717081    1.850451619028
RB    1.450532863446    0.161445282919   -1.582248380972
 P   -2.356119135289    2.333718531380   -1.632750273931
 O   -3.770776836659    2.343781846906   -2.481679209258
 O   -2.290519270667    3.923191423642   -1.162619730225
 O   -1.235736301776    2.001009673338   -2.615691350014
 O   -2.476707700471    1.539388189092   -0.322258261682
 C   -4.888977751184    2.802428253140   -1.689823731973
 H   -5.797679134648    2.535173553327   -2.240994935429
 H   -4.883610587260    2.301219501232   -0.709525817734
 H   -4.832636351826    3.890882016308   -1.540518473310
 C   -2.230366800670    4.840151810596   -2.272128152325
 H   -2.041675304814    5.830998027161   -1.844391487413
 H   -1.402728881237    4.575801663771   -2.948475383184
 H   -3.181477919984    4.847491218889   -2.824797831521
