28

 P    2.150148275911   -2.129708858003    1.490016897806
 O    1.029768275911   -1.796998858003    2.472956897806
 O    2.270738275911   -1.335378858003    0.179526897806
 O    3.564808275911   -2.139768858003    2.338946897806
 O    2.084558275911   -3.719178858003    1.019886897806
 C    4.683008275911   -2.598408858003    1.547086897806
 H    5.591708275911   -2.331148858003    2.098266897806
 H    4.677638275911   -2.097198858003    0.566796897806
 H    4.626668275911   -3.686858858003    1.397786897806
 C    2.024398275911   -4.636138858003    2.129396897806
 H    1.835708275911   -5.626988858003    1.701656897806
 H    1.196768275911   -4.371788858003    2.805736897806
 H    2.975518275911   -4.643478858003    2.682066897806
RB   -1.006571724089   -0.601188858003    1.889906897806
RB    1.507468275911    0.105051141997   -1.542793102194
 P   -2.490406122729    2.466728884092   -1.725808887126
 O   -3.905063824099    2.476792199618   -2.574737822452
 O   -2.424806258107    4.056201776354   -1.255678343420
 O   -1.370023289216    2.134020026050   -2.708749963208
 O   -2.610994687911    1.672398541804   -0.415316874877
 C   -5.023264738624    2.935438605852   -1.782882345168
 H   -5.931966122088    2.668183906039   -2.334053548623
 H   -5.017897574700    2.434229853944   -0.802584430928
 H   -4.966923339266    4.023892369020   -1.633577086505
 C   -2.364653788110    4.973162163308   -2.365186765520
 H   -2.175962292254    5.964008379873   -1.937450100607
 H   -1.537015868677    4.708812016482   -3.041533996379
 H   -3.315764907424    4.980501571600   -2.917856444715
