28

 P    2.188105217555   -2.167304951952    1.516320416991
 O    1.067725217555   -1.834594951952    2.499260416991
 O    2.308695217555   -1.372974951952    0.205830416991
 O    3.602765217555   -2.177364951952    2.365250416991
 O    2.122515217555   -3.756774951952    1.046190416991
 C    4.720965217555   -2.636004951952    1.573390416991
 H    5.629665217555   -2.368744951952    2.124570416991
 H    4.715595217555   -2.134794951952    0.593100416991
 H    4.664625217555   -3.724454951952    1.424090416991
 C    2.062355217555   -4.673734951952    2.155700416991
 H    1.873665217555   -5.664584951952    1.727960416991
 H    1.234725217555   -4.409384951952    2.832040416991
 H    3.013475217555   -4.681074951952    2.708370416991
RB   -0.968614782445   -0.638784951952    1.916210416991
RB    1.545425217555    0.067455048048   -1.516489583009
 P   -2.579930781023    2.555402452566   -1.787847962589
 O   -3.994588482393    2.565465768093   -2.636776897915
 O   -2.514330916400    4.144875344828   -1.317717418883
 O   -1.459547947510    2.222693594524   -2.770789038671
 O   -2.700519346204    1.761072110278   -0.477355950340
 C   -5.112789396917    3.024112174326   -1.844921420630
 H   -6.021490780381    2.756857474514   -2.396092624086
 H   -5.107422232994    2.522903422419   -0.864623506391
 H   -5.056447997559    4.112565937494   -1.695616161967
 C   -2.454178446403    5.061835731782   -2.427225840982
 H   -2.265486950548    6.052681948347   -1.999489176070
 H   -1.626540526970    4.797485584957   -3.103573071841
 H   -3.405289565717    5.069175140075   -2.979895520178
