28

 P    2.207083688376   -2.186102998926    1.529472176583
 O    1.086703688376   -1.853392998926    2.512412176583
 O    2.327673688376   -1.391772998926    0.218982176583
 O    3.621743688376   -2.196162998926    2.378402176583
 O    2.141493688376   -3.775572998926    1.059342176583
 C    4.739943688376   -2.654802998926    1.586542176583
 H    5.648643688376   -2.387542998926    2.137722176583
 H    4.734573688376   -2.153592998926    0.606252176583
 H    4.683603688376   -3.743252998926    1.437242176583
 C    2.081333688376   -4.692532998926    2.168852176583
 H    1.892643688376   -5.683382998926    1.741112176583
 H    1.253703688376   -4.428182998926    2.845192176583
 H    3.032453688376   -4.699872998926    2.721522176583
RB   -0.949636311624   -0.657582998926    1.929362176583
RB    1.564403688376    0.048657001074   -1.503337823417
 P   -2.624693110169    2.599739236803   -1.818867500320
 O   -4.039350811539    2.609802552330   -2.667796435647
 O   -2.559093245547    4.189212129066   -1.348736956614
 O   -1.504310276656    2.267030378762   -2.801808576403
 O   -2.745281675351    1.805408894516   -0.508375488071
 C   -5.157551726064    3.068448958564   -1.875940958362
 H   -6.066253109528    2.801194258751   -2.427112161818
 H   -5.152184562140    2.567240206656   -0.895643044122
 H   -5.101210326706    4.156902721731   -1.726635699699
 C   -2.498940775550    5.106172516020   -2.458245378714
 H   -2.310249279694    6.097018732585   -2.030508713802
 H   -1.671302856117    4.841822369194   -3.134592609573
 H   -3.450051894864    5.113511924312   -3.010915057909
