28

 P    2.320954513307   -2.298891280772    1.608382734139
 O    1.200574513307   -1.966181280772    2.591322734139
 O    2.441544513307   -1.504561280772    0.297892734139
 O    3.735614513307   -2.308951280772    2.457312734139
 O    2.255364513307   -3.888361280772    1.138252734139
 C    4.853814513307   -2.767591280772    1.665452734139
 H    5.762514513307   -2.500331280772    2.216632734139
 H    4.848444513307   -2.266381280772    0.685162734139
 H    4.797474513307   -3.856041280772    1.516152734139
 C    2.195204513307   -4.805321280772    2.247762734139
 H    2.006514513307   -5.796171280772    1.820022734139
 H    1.367574513307   -4.540971280772    2.924102734139
 H    3.146324513307   -4.812661280772    2.800432734139
RB   -0.835765486693   -0.770371280772    2.008272734139
RB    1.678274513307   -0.064131280772   -1.424427265861
 P   -2.893267085049    2.865759942227   -2.004984726709
 O   -4.307924786419    2.875823257754   -2.853913662035
 O   -2.827667220427    4.455232834489   -1.534854183003
 O   -1.772884251536    2.533051084185   -2.987925802791
 O   -3.013855650231    2.071429599939   -0.694492714460
 C   -5.426125700944    3.334469663987   -2.062058184751
 H   -6.334827084408    3.067214964175   -2.613229388206
 H   -5.420758537020    2.833260912080   -1.081760270511
 H   -5.369784301586    4.422923427155   -1.912752926088
 C   -2.767514750429    5.372193221443   -2.644362605102
 H   -2.578823254574    6.363039438008   -2.216625940190
 H   -1.939876830997    5.107843074618   -3.320709835962
 H   -3.718625869744    5.379532629736   -3.197032284298
