28

 P    2.358911454950   -2.336487374720    1.634686253324
 O    1.238531454950   -2.003777374720    2.617626253324
 O    2.479501454950   -1.542157374720    0.324196253324
 O    3.773571454950   -2.346547374720    2.483616253324
 O    2.293321454950   -3.925957374720    1.164556253324
 C    4.891771454950   -2.805187374720    1.691756253324
 H    5.800471454950   -2.537927374720    2.242936253324
 H    4.886401454950   -2.303977374720    0.711466253324
 H    4.835431454950   -3.893637374720    1.542456253324
 C    2.233161454950   -4.842917374720    2.274066253324
 H    2.044471454950   -5.833767374720    1.846326253324
 H    1.405531454950   -4.578567374720    2.950406253324
 H    3.184281454950   -4.850257374720    2.826736253324
RB   -0.797808545050   -0.807967374720    2.034576253324
RB    1.716231454950   -0.101727374720   -1.398123746676
 P   -2.982791743342    2.954433510702   -2.067023802172
 O   -4.397449444713    2.964496826228   -2.915952737498
 O   -2.917191878720    4.543906402964   -1.596893258465
 O   -1.862408909830    2.621724652660   -3.049964878254
 O   -3.103380308524    2.160103168414   -0.756531789923
 C   -5.515650359237    3.423143232462   -2.124097260213
 H   -6.424351742701    3.155888532649   -2.675268463669
 H   -5.510283195314    2.921934480554   -1.143799345974
 H   -5.459308959879    4.511596995629   -1.974792001550
 C   -2.857039408723    5.460866789918   -2.706401680565
 H   -2.668347912868    6.451713006483   -2.278665015653
 H   -2.029401489290    5.196516643092   -3.382748911424
 H   -3.808150528037    5.468206198210   -3.259071359761
