28

 P    2.415846867415   -2.392881515643    1.674141532101
 O    1.295466867415   -2.060171515643    2.657081532101
 O    2.536436867415   -1.598551515643    0.363651532101
 O    3.830506867415   -2.402941515643    2.523071532101
 O    2.350256867415   -3.982351515643    1.204011532101
 C    4.948706867415   -2.861581515643    1.731211532101
 H    5.857406867415   -2.594321515643    2.282391532101
 H    4.943336867415   -2.360371515643    0.750921532101
 H    4.892366867415   -3.950031515643    1.581911532101
 C    2.290096867415   -4.899311515643    2.313521532101
 H    2.101406867415   -5.890161515643    1.885781532101
 H    1.462466867415   -4.634961515643    2.989861532101
 H    3.241216867415   -4.906651515643    2.866191532101
RB   -0.740873132585   -0.864361515643    2.074031532101
RB    1.773166867415   -0.158121515643   -1.358668467899
 P   -3.117078730782    3.087443863413   -2.160082415366
 O   -4.531736432153    3.097507178940   -3.009011350692
 O   -3.051478866160    4.676916755675   -1.689951871660
 O   -1.996695897270    2.754735005371   -3.143023491448
 O   -3.237667295964    2.293113521126   -0.849590403117
 C   -5.649937346677    3.556153585173   -2.217155873408
 H   -6.558638730141    3.288898885361   -2.768327076863
 H   -5.644570182754    3.054944833266   -1.236857959168
 H   -5.593595947319    4.644607348341   -2.067850614745
 C   -2.991326396163    5.593877142629   -2.799460293760
 H   -2.802634900308    6.584723359195   -2.371723628847
 H   -2.163688476730    5.329526995804   -3.475807524619
 H   -3.942437515477    5.601216550922   -3.352129972955
