28

 P    2.453803809059   -2.430477609591    1.700445051287
 O    1.333423809059   -2.097767609591    2.683385051287
 O    2.574393809059   -1.636147609591    0.389955051287
 O    3.868463809059   -2.440537609591    2.549375051287
 O    2.388213809059   -4.019947609591    1.230315051287
 C    4.986663809059   -2.899177609591    1.757515051287
 H    5.895363809059   -2.631917609591    2.308695051287
 H    4.981293809059   -2.397967609591    0.777225051287
 H    4.930323809059   -3.987627609591    1.608215051287
 C    2.328053809059   -4.936907609591    2.339825051287
 H    2.139363809059   -5.927757609591    1.912085051287
 H    1.500423809059   -4.672557609591    3.016165051287
 H    3.279173809059   -4.944247609591    2.892495051287
RB   -0.702916190941   -0.901957609591    2.100335051287
RB    1.811123809059   -0.195717609591   -1.332364948713
 P   -3.206603389076    3.176117431888   -2.222121490829
 O   -4.621261090446    3.186180747414   -3.071050426155
 O   -3.141003524454    4.765590324150   -1.751990947123
 O   -2.086220555563    2.843408573846   -3.205062566911
 O   -3.327191954257    2.381787089600   -0.911629478580
 C   -5.739462004970    3.644827153648   -2.279194948871
 H   -6.648163388434    3.377572453835   -2.830366152326
 H   -5.734094841047    3.143618401740   -1.298897034631
 H   -5.683120605613    4.733280916816   -2.129889690208
 C   -3.080851054456    5.682550711104   -2.861499369223
 H   -2.892159558601    6.673396927669   -2.433762704310
 H   -2.253213135024    5.418200564278   -3.537846600082
 H   -4.031962173771    5.689890119397   -3.414169048418
