28

 P    2.472782279881   -2.449275656566    1.713596810879
 O    1.352402279881   -2.116565656566    2.696536810879
 O    2.593372279881   -1.654945656566    0.403106810879
 O    3.887442279881   -2.459335656566    2.562526810879
 O    2.407192279881   -4.038745656566    1.243466810879
 C    5.005642279881   -2.917975656566    1.770666810879
 H    5.914342279881   -2.650715656566    2.321846810879
 H    5.000272279881   -2.416765656566    0.790376810879
 H    4.949302279881   -4.006425656566    1.621366810879
 C    2.347032279881   -4.955705656566    2.352976810879
 H    2.158342279881   -5.946555656566    1.925236810879
 H    1.519402279881   -4.691355656566    3.029316810879
 H    3.298152279881   -4.963045656566    2.905646810879
RB   -0.683937720119   -0.920755656566    2.113486810879
RB    1.830102279881   -0.214515656566   -1.319213189121
 P   -3.251365718222    3.220454216125   -2.253141028560
 O   -4.666023419593    3.230517531652   -3.102069963887
 O   -3.185765853600    4.809927108387   -1.783010484854
 O   -2.130982884710    2.887745358083   -3.236082104643
 O   -3.371954283404    2.426123873837   -0.942649016311
 C   -5.784224334117    3.689163937885   -2.310214486602
 H   -6.692925717581    3.421909238073   -2.861385690058
 H   -5.778857170194    3.187955185978   -1.329916572362
 H   -5.727882934759    4.777617701053   -2.160909227939
 C   -3.125613383603    5.726887495341   -2.892518906954
 H   -2.936921887747    6.717733711906   -2.464782242042
 H   -2.297975464170    5.462537348516   -3.568866137813
 H   -4.076724502917    5.734226903634   -3.445188586150
