28

 P    2.510739221524   -2.486871750514    1.739900330064
 O    1.390359221524   -2.154161750514    2.722840330064
 O    2.631329221524   -1.692541750514    0.429410330064
 O    3.925399221524   -2.496931750514    2.588830330064
 O    2.445149221524   -4.076341750514    1.269770330064
 C    5.043599221524   -2.955571750514    1.796970330064
 H    5.952299221524   -2.688311750514    2.348150330064
 H    5.038229221524   -2.454361750514    0.816680330064
 H    4.987259221524   -4.044021750514    1.647670330064
 C    2.384989221524   -4.993301750514    2.379280330064
 H    2.196299221524   -5.984151750514    1.951540330064
 H    1.557359221524   -4.728951750514    3.055620330064
 H    3.336109221524   -5.000641750514    2.931950330064
RB   -0.645980778476   -0.958351750514    2.139790330064
RB    1.868059221524   -0.252111750514   -1.292909669936
 P   -3.340890376516    3.309127784600   -2.315180104023
 O   -4.755548077886    3.319191100126   -3.164109039350
 O   -3.275290511893    4.898600676862   -1.845049560317
 O   -2.220507543003    2.976418926558   -3.298121180106
 O   -3.461478941697    2.514797442312   -1.004688091774
 C   -5.873748992410    3.777837506360   -2.372253562065
 H   -6.782450375874    3.510582806547   -2.923424765521
 H   -5.868381828487    3.276628754452   -1.391955647825
 H   -5.817407593053    4.866291269528   -2.222948303402
 C   -3.215138041896    5.815561063816   -2.954557982417
 H   -3.026446546041    6.806407280381   -2.526821317505
 H   -2.387500122464    5.551210916990   -3.630905213276
 H   -4.166249161211    5.822900472108   -3.507227661612
