28

 P    2.529717692346   -2.505669797488    1.753052089657
 O    1.409337692346   -2.172959797488    2.735992089657
 O    2.650307692346   -1.711339797488    0.442562089657
 O    3.944377692346   -2.515729797488    2.601982089657
 O    2.464127692346   -4.095139797488    1.282922089657
 C    5.062577692346   -2.974369797488    1.810122089657
 H    5.971277692346   -2.707109797488    2.361302089657
 H    5.057207692346   -2.473159797488    0.829832089657
 H    5.006237692346   -4.062819797488    1.660822089657
 C    2.403967692346   -5.012099797488    2.392432089657
 H    2.215277692346   -6.002949797488    1.964692089657
 H    1.576337692346   -4.747749797488    3.068772089657
 H    3.355087692346   -5.019439797488    2.945102089657
RB   -0.627002307654   -0.977149797488    2.152942089657
RB    1.887037692346   -0.270909797488   -1.279757910343
 P   -3.385652705662    3.353464568837   -2.346199641754
 O   -4.800310407033    3.363527884363   -3.195128577081
 O   -3.320052841040    4.942937461099   -1.876069098048
 O   -2.265269872150    3.020755710795   -3.329140717837
 O   -3.506241270844    2.559134226549   -1.035707629505
 C   -5.918511321557    3.822174290597   -2.403273099796
 H   -6.827212705021    3.554919590784   -2.954444303252
 H   -5.913144157634    3.320965538689   -1.422975185557
 H   -5.862169922199    4.910628053765   -2.253967841133
 C   -3.259900371043    5.859897848053   -2.985577520148
 H   -3.071208875187    6.850744064618   -2.557840855236
 H   -2.432262451610    5.595547701228   -3.661924751007
 H   -4.211011490357    5.867237256346   -3.538247199344
