28

 P    2.586653104811   -2.562063938411    1.792507368434
 O    1.466273104811   -2.229353938411    2.775447368434
 O    2.707243104811   -1.767733938411    0.482017368434
 O    4.001313104811   -2.572123938411    2.641437368434
 O    2.521063104811   -4.151533938411    1.322377368434
 C    5.119513104811   -3.030763938411    1.849577368434
 H    6.028213104811   -2.763503938411    2.400757368434
 H    5.114143104811   -2.529553938411    0.869287368434
 H    5.063173104811   -4.119213938411    1.700277368434
 C    2.460903104811   -5.068493938411    2.431887368434
 H    2.272213104811   -6.059343938411    2.004147368434
 H    1.633273104811   -4.804143938411    3.108227368434
 H    3.412023104811   -5.075833938411    2.984557368434
RB   -0.570066895189   -1.033543938411    2.192397368434
RB    1.943973104811   -0.327303938411   -1.240302631566
 P   -3.519939693102    3.486474921549   -2.439258254949
 O   -4.934597394473    3.496538237075   -3.288187190275
 O   -3.454339828480    5.075947813811   -1.969127711243
 O   -2.399556859590    3.153766063507   -3.422199331031
 O   -3.640528258284    2.692144579261   -1.128766242700
 C   -6.052798308997    3.955184643309   -2.496331712991
 H   -6.961499692461    3.687929943496   -3.047502916446
 H   -6.047431145074    3.453975891401   -1.516033798751
 H   -5.996456909639    5.043638406477   -2.347026454328
 C   -3.394187358483    5.992908200765   -3.078636133343
 H   -3.205495862627    6.983754417330   -2.650899468430
 H   -2.566549439050    5.728558053939   -3.754983364202
 H   -4.345298477797    6.000247609057   -3.631305812538
