28

 P    2.662566988098   -2.637256126308    1.845114406805
 O    1.542186988098   -2.304546126308    2.828054406805
 O    2.783156988098   -1.842926126308    0.534624406805
 O    4.077226988098   -2.647316126308    2.694044406805
 O    2.596976988098   -4.226726126308    1.374984406805
 C    5.195426988098   -3.105956126308    1.902184406805
 H    6.104126988098   -2.838696126308    2.453364406805
 H    5.190056988098   -2.604746126308    0.921894406805
 H    5.139086988098   -4.194406126308    1.752884406805
 C    2.536816988098   -5.143686126308    2.484494406805
 H    2.348126988098   -6.134536126308    2.056754406805
 H    1.709186988098   -4.879336126308    3.160834406805
 H    3.487936988098   -5.151026126308    3.037164406805
RB   -0.494153011902   -1.108736126308    2.245004406805
RB    2.019886988098   -0.402496126308   -1.187695593195
 P   -3.698989009689    3.663822058498   -2.563336405875
 O   -5.113646711059    3.673885374024   -3.412265341201
 O   -3.633389145067    5.253294950760   -2.093205862169
 O   -2.578606176176    3.331113200456   -3.546277481957
 O   -3.819577574871    2.869491716210   -1.252844393626
 C   -6.231847625584    4.132531780258   -2.620409863916
 H   -7.140549009047    3.865277080445   -3.171581067372
 H   -6.226480461660    3.631323028350   -1.640111949677
 H   -6.175506226226    5.220985543426   -2.471104605253
 C   -3.573236675069    6.170255337714   -3.202714284268
 H   -3.384545179214    7.161101554279   -2.774977619356
 H   -2.745598755637    5.905905190888   -3.879061515127
 H   -4.524347794384    6.177594746007   -3.755383963464
