28

 P    2.700523929741   -2.674852220257    1.871417925990
 O    1.580143929741   -2.342142220257    2.854357925990
 O    2.821113929741   -1.880522220257    0.560927925990
 O    4.115183929741   -2.684912220257    2.720347925990
 O    2.634933929741   -4.264322220257    1.401287925990
 C    5.233383929741   -3.143552220257    1.928487925990
 H    6.142083929741   -2.876292220257    2.479667925990
 H    5.228013929741   -2.642342220257    0.948197925990
 H    5.177043929741   -4.232002220257    1.779187925990
 C    2.574773929741   -5.181282220257    2.510797925990
 H    2.386083929741   -6.172132220257    2.083057925990
 H    1.747143929741   -4.916932220257    3.187137925990
 H    3.525893929741   -5.188622220257    3.063467925990
RB   -0.456196070259   -1.146332220257    2.271307925990
RB    2.057843929741   -0.440092220257   -1.161392074010
 P   -3.788513667982    3.752495626972   -2.625375481337
 O   -5.203171369353    3.762558942499   -3.474304416664
 O   -3.722913803360    5.341968519234   -2.155244937631
 O   -2.668130834470    3.419786768930   -3.608316557420
 O   -3.909102233164    2.958165284684   -1.314883469088
 C   -6.321372283877    4.221205348732   -2.682448939379
 H   -7.230073667341    3.953950648920   -3.233620142835
 H   -6.316005119954    3.719996596825   -1.702151025140
 H   -6.265030884519    5.309659111900   -2.533143680716
 C   -3.662761333363    6.258928906188   -3.264753359731
 H   -3.474069837507    7.249775122753   -2.837016694819
 H   -2.835123413930    5.994578759363   -3.941100590590
 H   -4.613872452677    6.266268314481   -3.817423038927
