28

 P    2.928265579602   -2.900428783948    2.029239041100
 O    1.807885579602   -2.567718783948    3.012179041100
 O    3.048855579602   -2.106098783948    0.718749041100
 O    4.342925579602   -2.910488783948    2.878169041100
 O    2.862675579602   -4.489898783948    1.559109041100
 C    5.461125579602   -3.369128783948    2.086309041100
 H    6.369825579602   -3.101868783948    2.637489041100
 H    5.455755579602   -2.867918783948    1.106019041100
 H    5.404785579602   -4.457578783948    1.937009041100
 C    2.802515579602   -5.406858783948    2.668619041100
 H    2.613825579602   -6.397708783948    2.240879041100
 H    1.974885579602   -5.142508783948    3.344959041100
 H    3.753635579602   -5.414198783948    3.221289041100
RB   -0.228454420398   -1.371908783948    2.429129041100
RB    2.285585579602   -0.665668783948   -1.003570958900
 P   -4.325661617742    4.284537037819   -2.997609934115
 O   -5.740319319112    4.294600353346   -3.846538869441
 O   -4.260061753120    5.874009930082   -2.527479390409
 O   -3.205278784230    3.951828179777   -3.980551010197
 O   -4.446250182924    3.490206695532   -1.687117921866
 C   -6.858520233637    4.753246759579   -3.054683392157
 H   -7.767221617101    4.485992059767   -3.605854595612
 H   -6.853153069714    4.252038007672   -2.074385477917
 H   -6.802178834279    5.841700522747   -2.905378133494
 C   -4.199909283123    6.790970317035   -3.636987812509
 H   -4.011217787267    7.781816533601   -3.209251147596
 H   -3.372271363690    6.526620170210   -4.313335043368
 H   -5.151020402437    6.798309725328   -4.189657491704
