28

 P    3.004179462889   -2.975620971845    2.081846079471
 O    1.883799462889   -2.642910971845    3.064786079471
 O    3.124769462889   -2.181290971845    0.771356079471
 O    4.418839462889   -2.985680971845    2.930776079471
 O    2.938589462889   -4.565090971845    1.611716079471
 C    5.537039462889   -3.444320971845    2.138916079471
 H    6.445739462889   -3.177060971845    2.690096079471
 H    5.531669462889   -2.943110971845    1.158626079471
 H    5.480699462889   -4.532770971845    1.989616079471
 C    2.878429462889   -5.482050971845    2.721226079471
 H    2.689739462889   -6.472900971845    2.293486079471
 H    2.050799462889   -5.217700971845    3.397566079471
 H    3.829549462889   -5.489390971845    3.273896079471
RB   -0.152540537111   -1.447100971845    2.481736079471
RB    2.361499462889   -0.740860971845   -0.950963920529
 P   -4.504710934329    4.461884174768   -3.121688085040
 O   -5.919368635699    4.471947490295   -3.970617020367
 O   -4.439111069707    6.051357067031   -2.651557541334
 O   -3.384328100816    4.129175316726   -4.104629161123
 O   -4.625299499511    3.667553832481   -1.811196072791
 C   -7.037569550223    4.930593896529   -3.178761543082
 H   -7.946270933687    4.663339196716   -3.729932746538
 H   -7.032202386300    4.429385144621   -2.198463628843
 H   -6.981228150866    6.019047659696   -3.029456284419
 C   -4.378958599709    6.968317453984   -3.761065963434
 H   -4.190267103854    7.959163670550   -3.333329298522
 H   -3.551320680277    6.703967307159   -4.437413194293
 H   -5.330069719024    6.975656862277   -4.313735642630
