28

 P    3.023157933711   -2.994419018819    2.094997839063
 O    1.902777933711   -2.661709018819    3.077937839063
 O    3.143747933711   -2.200089018819    0.784507839063
 O    4.437817933711   -3.004479018819    2.943927839063
 O    2.957567933711   -4.583889018819    1.624867839063
 C    5.556017933711   -3.463119018819    2.152067839063
 H    6.464717933711   -3.195859018819    2.703247839063
 H    5.550647933711   -2.961909018819    1.171777839063
 H    5.499677933711   -4.551569018819    2.002767839063
 C    2.897407933711   -5.500849018819    2.734377839063
 H    2.708717933711   -6.491699018819    2.306637839063
 H    2.069777933711   -5.236499018819    3.410717839063
 H    3.848527933711   -5.508189018819    3.287047839063
RB   -0.133562066289   -1.465899018819    2.494887839063
RB    2.380477933711   -0.759659018819   -0.937812160937
 P   -4.549473263476    4.506220959006   -3.152707622772
 O   -5.964130964846    4.516284274532   -4.001636558099
 O   -4.483873398853    6.095693851268   -2.682577079066
 O   -3.429090429963    4.173512100964   -4.135648698854
 O   -4.670061828657    3.711890616718   -1.842215610523
 C   -7.082331879370    4.974930680766   -3.209781080814
 H   -7.991033262834    4.707675980953   -3.760952284270
 H   -7.076964715447    4.473721928858   -2.229483166574
 H   -7.025990480013    6.063384443934   -3.060475822151
 C   -4.423720928856    7.012654238222   -3.792085501166
 H   -4.235029433001    8.003500454787   -3.364348836253
 H   -3.596083009423    6.748304091396   -4.468432732025
 H   -5.374832048171    7.019993646514   -4.344755180361
