28

 P    3.061114875354   -3.032015112768    2.121301358248
 O    1.940734875354   -2.699305112768    3.104241358248
 O    3.181704875354   -2.237685112768    0.810811358248
 O    4.475774875354   -3.042075112768    2.970231358248
 O    2.995524875354   -4.621485112768    1.651171358248
 C    5.593974875354   -3.500715112768    2.178371358248
 H    6.502674875354   -3.233455112768    2.729551358248
 H    5.588604875354   -2.999505112768    1.198081358248
 H    5.537634875354   -4.589165112768    2.029071358248
 C    2.935364875354   -5.538445112768    2.760681358248
 H    2.746674875354   -6.529295112768    2.332941358248
 H    2.107734875354   -5.274095112768    3.437021358248
 H    3.886484875354   -5.545785112768    3.313351358248
RB   -0.095605124646   -1.503495112768    2.521191358248
RB    2.418434875354   -0.797255112768   -0.911508641752
 P   -4.638997921769    4.594894527480   -3.214746698235
 O   -6.053655623139    4.604957843007   -4.063675633561
 O   -4.573398057147    6.184367419742   -2.744616154529
 O   -3.518615088256    4.262185669438   -4.197687774317
 O   -4.759586486951    3.800564185192   -1.904254685986
 C   -7.171856537663    5.063604249240   -3.271820156277
 H   -8.080557921127    4.796349549428   -3.822991359732
 H   -7.166489373740    4.562395497333   -2.291522242037
 H   -7.115515138306    6.152058012408   -3.122514897614
 C   -4.513245587149    7.101327806696   -3.854124576629
 H   -4.324554091294    8.092174023261   -3.426387911716
 H   -3.685607667717    6.836977659871   -4.530471807488
 H   -5.464356706464    7.108667214989   -4.406794255824
