28

 P    3.080093346176   -3.050813159742    2.134453117841
 O    1.959713346176   -2.718103159742    3.117393117841
 O    3.200683346176   -2.256483159742    0.823963117841
 O    4.494753346176   -3.060873159742    2.983383117841
 O    3.014503346176   -4.640283159742    1.664323117841
 C    5.612953346176   -3.519513159742    2.191523117841
 H    6.521653346176   -3.252253159742    2.742703117841
 H    5.607583346176   -3.018303159742    1.211233117841
 H    5.556613346176   -4.607963159742    2.042223117841
 C    2.954343346176   -5.557243159742    2.773833117841
 H    2.765653346176   -6.548093159742    2.346093117841
 H    2.126713346176   -5.292893159742    3.450173117841
 H    3.905463346176   -5.564583159742    3.326503117841
RB   -0.076626653824   -1.522293159742    2.534343117841
RB    2.437413346176   -0.816053159742   -0.898356882159
 P   -4.683760250916    4.639231311717   -3.245766235966
 O   -6.098417952286    4.649294627244   -4.094695171293
 O   -4.618160386293    6.228704203980   -2.775635692260
 O   -3.563377417403    4.306522453675   -4.228707312049
 O   -4.804348816097    3.844900969430   -1.935274223717
 C   -7.216618866810    5.107941033478   -3.302839694008
 H   -8.125320250274    4.840686333665   -3.854010897464
 H   -7.211251702887    4.606732281570   -2.322541779768
 H   -7.160277467453    6.196394796645   -3.153534435345
 C   -4.558007916296    7.145664590934   -3.885144114360
 H   -4.369316420441    8.136510807499   -3.457407449448
 H   -3.730369996863    6.881314444108   -4.561491345219
 H   -5.509119035610    7.153003999226   -4.437813793556
