28

 P    3.099071816997   -3.069611206716    2.147604877433
 O    1.978691816997   -2.736901206716    3.130544877433
 O    3.219661816997   -2.275281206716    0.837114877433
 O    4.513731816997   -3.079671206716    2.996534877433
 O    3.033481816997   -4.659081206716    1.677474877433
 C    5.631931816997   -3.538311206716    2.204674877433
 H    6.540631816997   -3.271051206716    2.755854877433
 H    5.626561816997   -3.037101206716    1.224384877433
 H    5.575591816997   -4.626761206716    2.055374877433
 C    2.973321816997   -5.576041206716    2.786984877433
 H    2.784631816997   -6.566891206716    2.359244877433
 H    2.145691816997   -5.311691206716    3.463324877433
 H    3.924441816997   -5.583381206716    3.339654877433
RB   -0.057648183003   -1.541091206716    2.547494877433
RB    2.456391816997   -0.834851206716   -0.885205122567
 P   -4.728522580062    4.683568095955   -3.276785773698
 O   -6.143180281432    4.693631411481   -4.125714709024
 O   -4.662922715440    6.273040988217   -2.806655229992
 O   -3.608139746550    4.350859237913   -4.259726849780
 O   -4.849111145244    3.889237753667   -1.966293761449
 C   -7.261381195957    5.152277817715   -3.333859231740
 H   -8.170082579421    4.885023117902   -3.885030435195
 H   -7.256014032034    4.651069065807   -2.353561317500
 H   -7.205039796599    6.240731580883   -3.184553973077
 C   -4.602770245443    7.190001375171   -3.916163652091
 H   -4.414078749587    8.180847591736   -3.488426987179
 H   -3.775132326010    6.925651228345   -4.592510882951
 H   -5.553881364757    7.197340783463   -4.468833331287
