28

 P    3.118050287819   -3.088409253690    2.160756637026
 O    1.997670287819   -2.755699253690    3.143696637026
 O    3.238640287819   -2.294079253690    0.850266637026
 O    4.532710287819   -3.098469253690    3.009686637026
 O    3.052460287819   -4.677879253690    1.690626637026
 C    5.650910287819   -3.557109253690    2.217826637026
 H    6.559610287819   -3.289849253690    2.769006637026
 H    5.645540287819   -3.055899253690    1.237536637026
 H    5.594570287819   -4.645559253690    2.068526637026
 C    2.992300287819   -5.594839253690    2.800136637026
 H    2.803610287819   -6.585689253690    2.372396637026
 H    2.164670287819   -5.330489253690    3.476476637026
 H    3.943420287819   -5.602179253690    3.352806637026
RB   -0.038669712181   -1.559889253690    2.560646637026
RB    2.475370287819   -0.853649253690   -0.872053362974
 P   -4.773284909209    4.727904880192   -3.307805311429
 O   -6.187942610579    4.737968195718   -4.156734246756
 O   -4.707685044587    6.317377772454   -2.837674767723
 O   -3.652902075696    4.395196022150   -4.290746387512
 O   -4.893873474391    3.933574537904   -1.997313299180
 C   -7.306143525103    5.196614601952   -3.364878769471
 H   -8.214844908567    4.929359902140   -3.916049972927
 H   -7.300776361180    4.695405850044   -2.384580855231
 H   -7.249802125746    6.285068365120   -3.215573510808
 C   -4.647532574589    7.234338159408   -3.947183189823
 H   -4.458841078734    8.225184375973   -3.519446524911
 H   -3.819894655157    6.969988012583   -4.623530420682
 H   -5.598643693904    7.241677567701   -4.499852869018
