28

 P    3.174985700284   -3.144803394613    2.200211915803
 O    2.054605700284   -2.812093394613    3.183151915803
 O    3.295575700284   -2.350473394613    0.889721915803
 O    4.589645700284   -3.154863394613    3.049141915803
 O    3.109395700284   -4.734273394613    1.730081915803
 C    5.707845700284   -3.613503394613    2.257281915803
 H    6.616545700284   -3.346243394613    2.808461915803
 H    5.702475700284   -3.112293394613    1.276991915803
 H    5.651505700284   -4.701953394613    2.107981915803
 C    3.049235700284   -5.651233394613    2.839591915803
 H    2.860545700284   -6.642083394613    2.411851915803
 H    2.221605700284   -5.386883394613    3.515931915803
 H    4.000355700284   -5.658573394613    3.392261915803
RB    0.018265700284   -1.616283394613    2.600101915803
RB    2.532305700284   -0.910043394613   -0.832598084197
 P   -4.907571896649    4.860915232904   -3.400863924623
 O   -6.322229598019    4.870978548430   -4.249792859950
 O   -4.841972032027    6.450388125166   -2.930733380917
 O   -3.787189063136    4.528206374862   -4.383805000706
 O   -5.028160461831    4.066584890616   -2.090371912374
 C   -7.440430512543    5.329624954664   -3.457937382665
 H   -8.349131896007    5.062370254851   -4.009108586121
 H   -7.435063348620    4.828416202756   -2.477639468426
 H   -7.384089113186    6.418078717832   -3.308632124002
 C   -4.781819562029    7.367348512120   -4.040241803017
 H   -4.593128066174    8.358194728685   -3.612505138105
 H   -3.954181642597    7.102998365294   -4.716589033876
 H   -5.732930681344    7.374687920413   -4.592911482213
