28

 P    3.212942641928   -3.182399488562    2.226515434989
 O    2.092562641928   -2.849689488562    3.209455434989
 O    3.333532641928   -2.388069488562    0.916025434989
 O    4.627602641928   -3.192459488562    3.075445434989
 O    3.147352641928   -4.771869488562    1.756385434989
 C    5.745802641928   -3.651099488562    2.283585434989
 H    6.654502641928   -3.383839488562    2.834765434989
 H    5.740432641928   -3.149889488562    1.303295434989
 H    5.689462641928   -4.739549488562    2.134285434989
 C    3.087192641928   -5.688829488562    2.865895434989
 H    2.898502641928   -6.679679488562    2.438155434989
 H    2.259562641928   -5.424479488562    3.542235434989
 H    4.038312641928   -5.696169488562    3.418565434989
RB    0.056222641928   -1.653879488562    2.626405434989
RB    2.570262641928   -0.947639488562   -0.806294565011
 P   -4.997096554942    4.949588801378   -3.462903000086
 O   -6.411754256312    4.959652116905   -4.311831935413
 O   -4.931496690320    6.539061693640   -2.992772456380
 O   -3.876713721430    4.616879943336   -4.445844076169
 O   -5.117685120124    4.155258459090   -2.152410987837
 C   -7.529955170837    5.418298523138   -3.519976458128
 H   -8.438656554301    5.151043823326   -4.071147661584
 H   -7.524588006913    4.917089771231   -2.539678543889
 H   -7.473613771479    6.506752286306   -3.370671199465
 C   -4.871344220323    7.456022080594   -4.102280878480
 H   -4.682652724467    8.446868297160   -3.674544213568
 H   -4.043706300890    7.191671933769   -4.778628109339
 H   -5.822455339637    7.463361488887   -4.654950557676
