28

 N    0.657938751717    3.674342245235   -0.161851622394
 C    0.153578751717    4.929032245235    0.043148377606
 H    0.865518751717    5.754282245235    0.023568377606
 C   -0.138061248283    2.548322245235   -0.194031622394
 O    0.398298751717    1.423942245235   -0.408411622394
 N   -1.472921248283    2.670952245235    0.035778377606
 C   -1.990511248283    3.900582245235    0.240798377606
 N   -3.320241248283    3.973902245235    0.427368377606
 H   -3.886541248283    3.150422245235    0.263658377606
 H   -3.788281248283    4.866712245235    0.522028377606
 C   -1.188431248283    5.088952245235    0.257088377606
 H   -1.617371248283    6.077712245235    0.414358377606
 H    1.647788751717    3.539692245235   -0.348361622394
 K   -1.355831248283    0.309912245235    1.222168377606
 K    1.223408751717   -0.783347754765   -1.086371622394
 O   -0.351827834793   -1.257819648273    0.360770514526
 C    0.184530692948   -2.382201339933    0.146391630120
 N   -0.611468277737   -3.508212680721    0.114214806408
 H   -1.601318391607   -3.373567813328    0.300738061413
 C   -0.107115969593   -4.762908530379   -0.090785370471
 H   -0.819062733916   -5.588162557636   -0.071194470396
 C    1.234888197749   -4.922832764055   -0.304738737400
 H    1.663823702249   -5.911588031981   -0.462009183221
 C    2.036977989509   -3.734461276626   -0.288460954401
 N    3.366702004590   -3.807782009780   -0.475037148775
 N    1.519387397010   -2.504828088436   -0.083435967731
 H    3.933001666812   -2.984307775947   -0.311340242327
 H    3.834734418022   -4.700597260823   -0.569708092475
