28

 N    0.715601159159    3.880489913838   -0.220978834486
 C    0.211241159159    5.135179913838   -0.015978834486
 H    0.923181159159    5.960429913838   -0.035558834486
 C   -0.080398840841    2.754469913838   -0.253158834486
 O    0.455961159159    1.630089913838   -0.467538834486
 N   -1.415258840841    2.877099913838   -0.023348834486
 C   -1.932848840841    4.106729913838    0.181671165514
 N   -3.262578840841    4.180049913838    0.368241165514
 H   -3.828878840841    3.356569913838    0.204531165514
 H   -3.730618840841    5.072859913838    0.462901165514
 C   -1.130768840841    5.295099913838    0.197961165514
 H   -1.559708840841    6.283859913838    0.355231165514
 H    1.705451159159    3.745839913838   -0.407488834486
 K   -1.298168840841    0.516059913838    1.163041165514
 K    1.281071159159   -0.577200086162   -1.145498834486
 O   -0.449956292720   -1.608636648857    0.461391740754
 C    0.086402235021   -2.733018340516    0.247012856348
 N   -0.709596735664   -3.859029681305    0.214836032636
 H   -1.699446849534   -3.724384813911    0.401359287641
 C   -0.205244427520   -5.113725530962    0.009835855757
 H   -0.917191191843   -5.938979558219    0.029426755832
 C    1.136759739822   -5.273649764638   -0.204117511172
 H    1.565695244322   -6.262405032564   -0.361387956993
 C    1.938849531582   -4.085278277209   -0.187839728173
 N    3.268573546663   -4.158599010363   -0.374415922547
 N    1.421258939083   -2.855645089020    0.017185258497
 H    3.834873208886   -3.335124776530   -0.210719016099
 H    3.736605960095   -5.051414261407   -0.469086866247
