28

 N    0.792484369082    4.155353471976   -0.299815117275
 C    0.288124369082    5.410043471976   -0.094815117275
 H    1.000064369082    6.235293471976   -0.114395117275
 C   -0.003515630918    3.029333471976   -0.331995117275
 O    0.532844369082    1.904953471976   -0.546375117275
 N   -1.338375630918    3.151963471976   -0.102185117275
 C   -1.855965630918    4.381593471976    0.102834882725
 N   -3.185695630918    4.454913471976    0.289404882725
 H   -3.751995630918    3.631433471976    0.125694882725
 H   -3.653735630918    5.347723471976    0.384064882725
 C   -1.053885630918    5.569963471976    0.119124882725
 H   -1.482825630918    6.558723471976    0.276394882725
 H    1.782334369082    4.020703471976   -0.486325117275
 K   -1.221285630918    0.790923471976    1.084204882725
 K    1.357954369082   -0.302336528024   -1.224335117275
 O   -0.580794236623   -2.076392649634    0.595553375725
 C   -0.044435708881   -3.200774341294    0.381174491319
 N   -0.840434679567   -4.326785682082    0.348997667607
 H   -1.830284793436   -4.192140814688    0.535520922611
 C   -0.336082371422   -5.581481531740    0.143997490728
 H   -1.048029135746   -6.406735558996    0.163588390802
 C    1.005921795920   -5.741405765416   -0.069955876201
 H    1.434857300419   -6.730161033342   -0.227226322022
 C    1.808011587680   -4.553034277987   -0.053678093202
 N    3.137735602761   -4.626355011140   -0.240254287576
 N    1.290420995181   -3.323401089797    0.151346893467
 H    3.704035264983   -3.802880777308   -0.076557381128
 H    3.605768016192   -5.519170262184   -0.334925231276
