28

 N    0.811705171562    4.224069361510   -0.319524187972
 C    0.307345171562    5.478759361510   -0.114524187972
 H    1.019285171562    6.304009361510   -0.134104187972
 C    0.015705171562    3.098049361510   -0.351704187972
 O    0.552065171562    1.973669361510   -0.566084187972
 N   -1.319154828438    3.220679361510   -0.121894187972
 C   -1.836744828438    4.450309361510    0.083125812028
 N   -3.166474828438    4.523629361510    0.269695812028
 H   -3.732774828438    3.700149361510    0.105985812028
 H   -3.634514828438    5.416439361510    0.364355812028
 C   -1.034664828438    5.638679361510    0.099415812028
 H   -1.463604828438    6.627439361510    0.256685812028
 H    1.801555171562    4.089419361510   -0.506034187972
 K   -1.202064828438    0.859639361510    1.064495812028
 K    1.377175171562   -0.233620638490   -1.244044187972
 O   -0.613503722598   -2.193331649829    0.629093784467
 C   -0.077145194857   -3.317713341489    0.414714900061
 N   -0.873144165543   -4.443724682277    0.382538076350
 H   -1.862994279412   -4.309079814883    0.569061331354
 C   -0.368791857398   -5.698420531934    0.177537899470
 H   -1.080738621722   -6.523674559191    0.197128799545
 C    0.973212309944   -5.858344765611   -0.036415467458
 H    1.402147814444   -6.847100033536   -0.193685913279
 C    1.775302101704   -4.669973278181   -0.020137684460
 N    3.105026116785   -4.743294011335   -0.206713878833
 N    1.257711509205   -3.440340089992    0.184887302210
 H    3.671325779007   -3.919819777502   -0.043016972386
 H    3.573058530217   -5.636109262379   -0.301384822534
