28

 N    0.821315572803    4.258427306277   -0.329378723321
 C    0.316955572803    5.513117306277   -0.124378723321
 H    1.028895572803    6.338367306277   -0.143958723321
 C    0.025315572803    3.132407306277   -0.361558723321
 O    0.561675572803    2.008027306277   -0.575938723321
 N   -1.309544427197    3.255037306277   -0.131748723321
 C   -1.827134427197    4.484667306277    0.073271276679
 N   -3.156864427197    4.557987306277    0.259841276679
 H   -3.723164427197    3.734507306277    0.096131276679
 H   -3.624904427197    5.450797306277    0.354501276679
 C   -1.025054427197    5.673037306277    0.089561276679
 H   -1.453994427197    6.661797306277    0.246831276679
 H    1.811165572803    4.123777306277   -0.515888723321
 K   -1.192454427197    0.893997306277    1.054641276679
 K    1.386785572803   -0.199262693723   -1.253898723321
 O   -0.629858465586   -2.251801149926    0.645863988839
 C   -0.093499937845   -3.376182841586    0.431485104433
 N   -0.889498908530   -4.502194182374    0.399308280721
 H   -1.879349022400   -4.367549314980    0.585831535725
 C   -0.385146600386   -5.756890032032    0.194308103842
 H   -1.097093364709   -6.582144059288    0.213899003916
 C    0.956857566956   -5.916814265708   -0.019645263087
 H    1.385793071456   -6.905569533634   -0.176915708908
 C    1.758947358716   -4.728442778278   -0.003367480088
 N    3.088671373797   -4.801763511432   -0.189943674462
 N    1.241356766217   -3.498809590089    0.201657506581
 H    3.654971036020   -3.978289277599   -0.026246768014
 H    3.556703787229   -5.694578762476   -0.284614618162
