28

 N    0.840536375284    4.327143195812   -0.349087794018
 C    0.336176375284    5.581833195812   -0.144087794018
 H    1.048116375284    6.407083195812   -0.163667794018
 C    0.044536375284    3.201123195812   -0.381267794018
 O    0.580896375284    2.076743195812   -0.595647794018
 N   -1.290323624716    3.323753195812   -0.151457794018
 C   -1.807913624716    4.553383195812    0.053562205982
 N   -3.137643624716    4.626703195812    0.240132205982
 H   -3.703943624716    3.803223195812    0.076422205982
 H   -3.605683624716    5.519513195812    0.334792205982
 C   -1.005833624716    5.741753195812    0.069852205982
 H   -1.434773624716    6.730513195812    0.227122205982
 H    1.830386375284    4.192493195812   -0.535597794018
 K   -1.173233624716    0.962713195812    1.034932205982
 K    1.406006375284   -0.130546804188   -1.273607794018
 O   -0.662567951562   -2.368740150120    0.679404397581
 C   -0.126209423820   -3.493121841780    0.465025513175
 N   -0.922208394506   -4.619133182568    0.432848689464
 H   -1.912058508375   -4.484488315175    0.619371944468
 C   -0.417856086361   -5.873829032226    0.227848512584
 H   -1.129802850685   -6.699083059482    0.247439412659
 C    0.924148080981   -6.033753265902    0.013895145656
 H    1.353083585480   -7.022508533828   -0.143375300165
 C    1.726237872741   -4.845381778473    0.030172928654
 N    3.055961887822   -4.918702511626   -0.156403265719
 N    1.208647280241   -3.615748590283    0.235197915324
 H    3.622261550044   -4.095228277794    0.007293640728
 H    3.523994301253   -5.811517762670   -0.251074209420
