28

 N    0.869367579005    4.430217030113   -0.378651400064
 C    0.365007579005    5.684907030113   -0.173651400064
 H    1.076947579005    6.510157030113   -0.193231400064
 C    0.073367579005    3.304197030113   -0.410831400064
 O    0.609727579005    2.179817030113   -0.625211400064
 N   -1.261492420995    3.426827030113   -0.181021400064
 C   -1.779082420995    4.656457030113    0.023998599936
 N   -3.108812420995    4.729777030113    0.210568599936
 H   -3.675112420995    3.906297030113    0.046858599936
 H   -3.576852420995    5.622587030113    0.305228599936
 C   -0.977002420995    5.844827030113    0.040288599936
 H   -1.405942420995    6.833587030113    0.197558599936
 H    1.859217579005    4.295567030113   -0.565161400064
 K   -1.144402420995    1.065787030113    1.005368599936
 K    1.434837579005   -0.027472969887   -1.303171400064
 O   -0.711632180525   -2.544148650412    0.729715010695
 C   -0.175273652784   -3.668530342072    0.515336126289
 N   -0.971272623470   -4.794541682860    0.483159302578
 H   -1.961122737339   -4.659896815466    0.669682557582
 C   -0.466920315325   -6.049237532518    0.278159125698
 H   -1.178867079648   -6.874491559774    0.297750025773
 C    0.875083852017   -6.209161766194    0.064205758770
 H    1.304019356517   -7.197917034120   -0.093064687051
 C    1.677173643777   -5.020790278764    0.080483541768
 N    3.006897658858   -5.094111011918   -0.106092652605
 N    1.159583051278   -3.791157090575    0.285508528438
 H    3.573197321080   -4.270636778085    0.057604253842
 H    3.474930072290   -5.986926262962   -0.200763596306
