28

 N    0.888588381485    4.498932919648   -0.398360470761
 C    0.384228381485    5.753622919648   -0.193360470761
 H    1.096168381485    6.578872919648   -0.212940470761
 C    0.092588381485    3.372912919648   -0.430540470761
 O    0.628948381485    2.248532919648   -0.644920470761
 N   -1.242271618515    3.495542919648   -0.200730470761
 C   -1.759861618515    4.725172919648    0.004289529239
 N   -3.089591618515    4.798492919648    0.190859529239
 H   -3.655891618515    3.975012919648    0.027149529239
 H   -3.557631618515    5.691302919648    0.285519529239
 C   -0.957781618515    5.913542919648    0.020579529239
 H   -1.386721618515    6.902302919648    0.177849529239
 H    1.878438381485    4.364282919648   -0.584870470761
 K   -1.125181618515    1.134502919648    0.985659529239
 K    1.454058381485    0.041242919648   -1.322880470761
 O   -0.744341666501   -2.661087650606    0.763255419438
 C   -0.207983138760   -3.785469342266    0.548876535032
 N   -1.003982109445   -4.911480683054    0.516699711320
 H   -1.993832223314   -4.776835815661    0.703222966325
 C   -0.499629801300   -6.166176532712    0.311699534441
 H   -1.211576565624   -6.991430559968    0.331290434516
 C    0.842374366042   -6.326100766388    0.097746167512
 H    1.271309870541   -7.314856034314   -0.059524278309
 C    1.644464157802   -5.137729278959    0.114023950511
 N    2.974188172883   -5.211050012112   -0.072552243863
 N    1.126873565302   -3.908096090769    0.319048937181
 H    3.540487835105   -4.387575778280    0.091144662585
 H    3.442220586314   -6.103865263156   -0.167223187563
