28

 N    0.898198782726    4.533290864415   -0.408215006110
 C    0.393838782726    5.787980864415   -0.203215006110
 H    1.105778782726    6.613230864415   -0.222795006110
 C    0.102198782726    3.407270864415   -0.440395006110
 O    0.638558782726    2.282890864415   -0.654775006110
 N   -1.232661217274    3.529900864415   -0.210585006110
 C   -1.750251217274    4.759530864415   -0.005565006110
 N   -3.079981217274    4.832850864415    0.181004993890
 H   -3.646281217274    4.009370864415    0.017294993890
 H   -3.548021217274    5.725660864415    0.275664993890
 C   -0.948171217274    5.947900864415    0.010724993890
 H   -1.377111217274    6.936660864415    0.167994993890
 H    1.888048782726    4.398640864415   -0.594725006110
 K   -1.115571217274    1.168860864415    0.975804993890
 K    1.463668782726    0.075600864415   -1.332735006110
 O   -0.760696409489   -2.719557150703    0.780025623809
 C   -0.224337881747   -3.843938842363    0.565646739403
 N   -1.020336852433   -4.969950183151    0.533469915692
 H   -2.010186966302   -4.835305315758    0.719993170696
 C   -0.515984544288   -6.224646032809    0.328469738812
 H   -1.227931308612   -7.049900060066    0.348060638887
 C    0.826019623054   -6.384570266485    0.114516371884
 H    1.254955127553   -7.373325534411   -0.042754073937
 C    1.628109414814   -5.196198779056    0.130794154882
 N    2.957833429895   -5.269519512210   -0.055782039491
 N    1.110518822314   -3.966565590866    0.335819141552
 H    3.524133092117   -4.446045278377    0.107914866956
 H    3.425865843326   -6.162334763253   -0.150452983192
