28

 N    0.907809183966    4.567648809182   -0.418069541458
 C    0.403449183966    5.822338809182   -0.213069541458
 H    1.115389183966    6.647588809182   -0.232649541458
 C    0.111809183966    3.441628809182   -0.450249541458
 O    0.648169183966    2.317248809182   -0.664629541458
 N   -1.223050816034    3.564258809182   -0.220439541458
 C   -1.740640816034    4.793888809182   -0.015419541458
 N   -3.070370816034    4.867208809182    0.171150458542
 H   -3.636670816034    4.043728809182    0.007440458542
 H   -3.538410816034    5.760018809182    0.265810458542
 C   -0.938560816034    5.982258809182    0.000870458542
 H   -1.367500816034    6.971018809182    0.158140458542
 H    1.897659183966    4.432998809182   -0.604579541458
 K   -1.105960816034    1.203218809182    0.965950458542
 K    1.473279183966    0.109958809182   -1.342589541458
 O   -0.777051152477   -2.778026650801    0.796795828181
 C   -0.240692624735   -3.902408342461    0.582416943775
 N   -1.036691595421   -5.028419683249    0.550240120063
 H   -2.026541709290   -4.893774815855    0.736763375067
 C   -0.532339287276   -6.283115532906    0.345239943184
 H   -1.244286051600   -7.108369560163    0.364830843258
 C    0.809664880066   -6.443039766583    0.131286576255
 H    1.238600384565   -7.431795034508   -0.025983869566
 C    1.611754671826   -5.254668279153    0.147564359254
 N    2.941478686907   -5.327989012307   -0.039011835120
 N    1.094164079327   -4.025035090964    0.352589345923
 H    3.507778349129   -4.504514778474    0.124685071328
 H    3.409511100338   -6.220804263351   -0.133682778820
