28

 N    0.917419585206    4.602006753950   -0.427924076807
 C    0.413059585206    5.856696753950   -0.222924076807
 H    1.124999585206    6.681946753950   -0.242504076807
 C    0.121419585206    3.475986753950   -0.460104076807
 O    0.657779585206    2.351606753950   -0.674484076807
 N   -1.213440414794    3.598616753950   -0.230294076807
 C   -1.731030414794    4.828246753950   -0.025274076807
 N   -3.060760414794    4.901566753950    0.161295923193
 H   -3.627060414794    4.078086753950   -0.002414076807
 H   -3.528800414794    5.794376753950    0.255955923193
 C   -0.928950414794    6.016616753950   -0.008984076807
 H   -1.357890414794    7.005376753950    0.148285923193
 H    1.907269585206    4.467356753950   -0.614434076807
 K   -1.096350414794    1.237576753950    0.956095923193
 K    1.482889585206    0.144316753950   -1.352444076807
 O   -0.793405895464   -2.836496150898    0.813566032552
 C   -0.257047367723   -3.960877842558    0.599187148146
 N   -1.053046338409   -5.086889183346    0.567010324434
 H   -2.042896452278   -4.952244315952    0.753533579439
 C   -0.548694030264   -6.341585033004    0.362010147555
 H   -1.260640794588   -7.166839060260    0.381601047630
 C    0.793310137078   -6.501509266680    0.148056780626
 H    1.222245641578   -7.490264534606   -0.009213665195
 C    1.595399928838   -5.313137779250    0.164334563625
 N    2.925123943919   -5.386458512404   -0.022241630749
 N    1.077809336339   -4.083504591061    0.369359550295
 H    3.491423606141   -4.562984278571    0.141455275699
 H    3.393156357351   -6.279273763448   -0.116912574449
