28

 N    0.955861190168    4.739438533018   -0.467342218201
 C    0.451501190168    5.994128533018   -0.262342218201
 H    1.163441190168    6.819378533018   -0.281922218201
 C    0.159861190168    3.613418533018   -0.499522218201
 O    0.696221190168    2.489038533018   -0.713902218201
 N   -1.174998809832    3.736048533018   -0.269712218201
 C   -1.692588809832    4.965678533018   -0.064692218201
 N   -3.022318809832    5.038998533018    0.121877781799
 H   -3.588618809832    4.215518533018   -0.041832218201
 H   -3.490358809832    5.931808533018    0.216537781799
 C   -0.890508809832    6.154048533018   -0.048402218201
 H   -1.319448809832    7.142808533018    0.108867781799
 H    1.945711190168    4.604788533018   -0.653852218201
 K   -1.057908809832    1.375008533018    0.916677781799
 K    1.521331190168    0.281748533018   -1.391862218201
 O   -0.858824867416   -3.070374151287    0.880646850037
 C   -0.322466339674   -4.194755842947    0.666267965631
 N   -1.118465310360   -5.320767183735    0.634091141920
 H   -2.108315424229   -5.186122316341    0.820614396924
 C   -0.614113002215   -6.575463033392    0.429090965040
 H   -1.326059766539   -7.400717060649    0.448681865115
 C    0.727891165127   -6.735387267069    0.215137598112
 H    1.156826669626   -7.724142534994    0.057867152291
 C    1.529980956887   -5.547015779639    0.231415381110
 N    2.859704971968   -5.620336512793    0.044839186737
 N    1.012390364388   -4.317382591450    0.436440367780
 H    3.426004634190   -4.796862278960    0.208536093184
 H    3.327737385399   -6.513151763837   -0.049831756964
