28

 N    0.965471591408    4.773796477786   -0.477196753550
 C    0.461111591408    6.028486477786   -0.272196753550
 H    1.173051591408    6.853736477786   -0.291776753550
 C    0.169471591408    3.647776477786   -0.509376753550
 O    0.705831591408    2.523396477786   -0.723756753550
 N   -1.165388408592    3.770406477786   -0.279566753550
 C   -1.682978408592    5.000036477786   -0.074546753550
 N   -3.012708408592    5.073356477786    0.112023246450
 H   -3.579008408592    4.249876477786   -0.051686753550
 H   -3.480748408592    5.966166477786    0.206683246450
 C   -0.880898408592    6.188406477786   -0.058256753550
 H   -1.309838408592    7.177166477786    0.099013246450
 H    1.955321591408    4.639146477786   -0.663706753550
 K   -1.048298408592    1.409366477786    0.906823246450
 K    1.530941591408    0.316106477786   -1.401716753550
 O   -0.875179610403   -3.128843651384    0.897417054409
 C   -0.338821082662   -4.253225343044    0.683038170003
 N   -1.134820053348   -5.379236683832    0.650861346291
 H   -2.124670167217   -5.244591816438    0.837384601295
 C   -0.630467745203   -6.633932533490    0.445861169412
 H   -1.342414509527   -7.459186560746    0.465452069486
 C    0.711536422139   -6.793856767166    0.231907802483
 H    1.140471926638   -7.782612035092    0.074637356662
 C    1.513626213899   -5.605485279736    0.248185585482
 N    2.843350228980   -5.678806012890    0.061609391108
 N    0.996035621400   -4.375852091547    0.453210572151
 H    3.409649891202   -4.855331779057    0.225306297556
 H    3.311382642411   -6.571621263934   -0.033061552592
