28

 N    0.975081992649    4.808154422553   -0.487051288899
 C    0.470721992649    6.062844422553   -0.282051288899
 H    1.182661992649    6.888094422553   -0.301631288899
 C    0.179081992649    3.682134422553   -0.519231288899
 O    0.715441992649    2.557754422553   -0.733611288899
 N   -1.155778007351    3.804764422553   -0.289421288899
 C   -1.673368007351    5.034394422553   -0.084401288899
 N   -3.003098007351    5.107714422553    0.102168711101
 H   -3.569398007351    4.284234422553   -0.061541288899
 H   -3.471138007351    6.000524422553    0.196828711101
 C   -0.871288007351    6.222764422553   -0.068111288899
 H   -1.300228007351    7.211524422553    0.089158711101
 H    1.964931992649    4.673504422553   -0.673561288899
 K   -1.038688007351    1.443724422553    0.896968711101
 K    1.540551992649    0.350464422553   -1.411571288899
 O   -0.891534353391   -3.187313151481    0.914187258780
 C   -0.355175825650   -4.311694843141    0.699808374374
 N   -1.151174796336   -5.437706183929    0.667631550662
 H   -2.141024910205   -5.303061316535    0.854154805667
 C   -0.646822488191   -6.692402033587    0.462631373783
 H   -1.358769252514   -7.517656060843    0.482222273858
 C    0.695181679151   -6.852326267263    0.248678006854
 H    1.124117183651   -7.841081535189    0.091407561033
 C    1.497271470911   -5.663954779834    0.264955789853
 N    2.826995485992   -5.737275512987    0.078379595479
 N    0.979680878412   -4.434321591644    0.469980776523
 H    3.393295148214   -4.913801279155    0.242076501927
 H    3.295027899424   -6.630090764031   -0.016291348221
