28

 N    0.984692393889    4.842512367320   -0.496905824247
 C    0.480332393889    6.097202367320   -0.291905824247
 H    1.192272393889    6.922452367320   -0.311485824247
 C    0.188692393889    3.716492367320   -0.529085824247
 O    0.725052393889    2.592112367320   -0.743465824247
 N   -1.146167606111    3.839122367320   -0.299275824247
 C   -1.663757606111    5.068752367320   -0.094255824247
 N   -2.993487606111    5.142072367320    0.092314175753
 H   -3.559787606111    4.318592367320   -0.071395824247
 H   -3.461527606111    6.034882367320    0.186974175753
 C   -0.861677606111    6.257122367320   -0.077965824247
 H   -1.290617606111    7.245882367320    0.079304175753
 H    1.974542393889    4.707862367320   -0.683415824247
 K   -1.029077606111    1.478082367320    0.887114175753
 K    1.550162393889    0.384822367320   -1.421425824247
 O   -0.907889096379   -3.245782651578    0.930957463151
 C   -0.371530568638   -4.370164343238    0.716578578745
 N   -1.167529539323   -5.496175684026    0.684401755034
 H   -2.157379653193   -5.361530816633    0.870925010038
 C   -0.663177231178   -6.750871533684    0.479401578154
 H   -1.375123995502   -7.576125560941    0.498992478229
 C    0.678826936163   -6.910795767360    0.265448211226
 H    1.107762440663   -7.899551035286    0.108177765405
 C    1.480916727923   -5.722424279931    0.281725994224
 N    2.810640743004   -5.795745013085    0.095149799851
 N    0.963326135424   -4.492791091741    0.486750980894
 H    3.376940405227   -4.972270779252    0.258846706298
 H    3.278673156436   -6.688560264128    0.000478856150
