28

 N    1.032744400091    5.014302091156   -0.546178500991
 C    0.528384400091    6.268992091156   -0.341178500991
 H    1.240324400091    7.094242091156   -0.360758500991
 C    0.236744400091    3.888282091156   -0.578358500991
 O    0.773104400091    2.763902091156   -0.792738500991
 N   -1.098115599909    4.010912091156   -0.348548500991
 C   -1.615705599909    5.240542091156   -0.143528500991
 N   -2.945435599909    5.313862091156    0.043041499009
 H   -3.511735599909    4.490382091156   -0.120668500991
 H   -3.413475599909    6.206672091156    0.137701499009
 C   -0.813625599909    6.428912091156   -0.127238500991
 H   -1.242565599909    7.417672091156    0.030031499009
 H    2.022594400091    4.879652091156   -0.732688500991
 K   -0.981025599909    1.649872091156    0.837841499009
 K    1.598214400091    0.556612091156   -1.470698500991
 O   -0.989662811318   -3.538130152064    1.014808485008
 C   -0.453304283577   -4.662511843724    0.800429600602
 N   -1.249303254262   -5.788523184512    0.768252776890
 H   -2.239153368132   -5.653878317119    0.954776031895
 C   -0.744950946118   -7.043219034170    0.563252600011
 H   -1.456897710441   -7.868473061427    0.582843500086
 C    0.597053221224   -7.203143267846    0.349299233082
 H    1.025988725724   -8.191898535772    0.192028787261
 C    1.399143012984   -6.014771780417    0.365577016081
 N    2.728867028065   -6.088092513571    0.179000821707
 N    0.881552420485   -4.785138592227    0.570602002751
 H    3.295166690287   -5.264618279738    0.342697728155
 H    3.196899441497   -6.980907764614    0.084329878007
