28

 N    1.042354801331    5.048660035923   -0.556033036339
 C    0.537994801331    6.303350035923   -0.351033036339
 H    1.249934801331    7.128600035923   -0.370613036339
 C    0.246354801331    3.922640035923   -0.588213036339
 O    0.782714801331    2.798260035923   -0.802593036339
 N   -1.088505198669    4.045270035923   -0.358403036339
 C   -1.606095198669    5.274900035923   -0.153383036339
 N   -2.935825198669    5.348220035923    0.033186963661
 H   -3.502125198669    4.524740035923   -0.130523036339
 H   -3.403865198669    6.241030035923    0.127846963661
 C   -0.804015198669    6.463270035923   -0.137093036339
 H   -1.232955198669    7.452030035923    0.020176963661
 H    2.032204801331    4.914010035923   -0.742543036339
 K   -0.971415198669    1.684230035923    0.827986963661
 K    1.607824801331    0.590970035923   -1.480553036339
 O   -1.006017554306   -3.596599652161    1.031578689379
 C   -0.469659026565   -4.720981343821    0.817199804973
 N   -1.265657997250   -5.846992684609    0.785022981262
 H   -2.255508111120   -5.712347817216    0.971546236266
 C   -0.761305689105   -7.101688534267    0.580022804382
 H   -1.473252453429   -7.926942561524    0.599613704457
 C    0.580698478237   -7.261612767943    0.366069437454
 H    1.009633982736   -8.250368035869    0.208798991633
 C    1.382788269996   -6.073241280514    0.382347220452
 N    2.712512285077   -6.146562013668    0.195771026079
 N    0.865197677497   -4.843608092324    0.587372207122
 H    3.278811947300   -5.323087779835    0.359467932526
 H    3.180544698509   -7.039377264712    0.101100082378
