28

 N    1.051965202571    5.083017980690   -0.565887571688
 C    0.547605202571    6.337707980690   -0.360887571688
 H    1.259545202571    7.162957980690   -0.380467571688
 C    0.255965202571    3.956997980690   -0.598067571688
 O    0.792325202571    2.832617980690   -0.812447571688
 N   -1.078894797429    4.079627980690   -0.368257571688
 C   -1.596484797429    5.309257980690   -0.163237571688
 N   -2.926214797429    5.382577980690    0.023332428312
 H   -3.492514797429    4.559097980690   -0.140377571688
 H   -3.394254797429    6.275387980690    0.117992428312
 C   -0.794404797429    6.497627980690   -0.146947571688
 H   -1.223344797429    7.486387980690    0.010322428312
 H    2.041815202571    4.948367980690   -0.752397571688
 K   -0.961804797429    1.718587980690    0.818132428312
 K    1.617435202571    0.625327980690   -1.490407571688
 O   -1.022372297294   -3.655069152259    1.048348893751
 C   -0.486013769552   -4.779450843919    0.833970009345
 N   -1.282012740238   -5.905462184707    0.801793185633
 H   -2.271862854107   -5.770817317313    0.988316440637
 C   -0.777660432093   -7.160158034364    0.596793008754
 H   -1.489607196417   -7.985412061621    0.616383908828
 C    0.564343735249   -7.320082268041    0.382839641825
 H    0.993279239748   -8.308837535966    0.225569196004
 C    1.366433527009   -6.131710780611    0.399117424824
 N    2.696157542090   -6.205031513765    0.212541230450
 N    0.848842934509   -4.902077592422    0.604142411493
 H    3.262457204312   -5.381557279932    0.376238136898
 H    3.164189955521   -7.097846764809    0.117870286750
