28

 N    1.080796406292    5.186091814992   -0.595451177734
 C    0.576436406292    6.440781814992   -0.390451177734
 H    1.288376406292    7.266031814992   -0.410031177734
 C    0.284796406292    4.060071814992   -0.627631177734
 O    0.821156406292    2.935691814992   -0.842011177734
 N   -1.050063593708    4.182701814992   -0.397821177734
 C   -1.567653593708    5.412331814992   -0.192801177734
 N   -2.897383593708    5.485651814992   -0.006231177734
 H   -3.463683593708    4.662171814992   -0.169941177734
 H   -3.365423593708    6.378461814992    0.088428822266
 C   -0.765573593708    6.600701814992   -0.176511177734
 H   -1.194513593708    7.589461814992   -0.019241177734
 H    2.070646406292    5.051441814992   -0.781961177734
 K   -0.932973593708    1.821661814992    0.788568822266
 K    1.646266406292    0.728401814992   -1.519971177734
 O   -1.071436526257   -3.830477652550    1.098659506865
 C   -0.535077998516   -4.954859344210    0.884280622459
 N   -1.331076969202   -6.080870684998    0.852103798747
 H   -2.320927083071   -5.946225817605    1.038627053751
 C   -0.826724661057   -7.335566534656    0.647103621868
 H   -1.538671425380   -8.160820561913    0.666694521942
 C    0.515279506285   -7.495490768332    0.433150254939
 H    0.944215010785   -8.484246036258    0.275879809118
 C    1.317369298045   -6.307119280903    0.449428037938
 N    2.647093313126   -6.380440014057    0.262851843564
 N    0.799778705546   -5.077486092713    0.654453024607
 H    3.213392975348   -5.556965780224    0.426548750012
 H    3.115125726558   -7.273255265100    0.168180899864
