28

 N    1.090406807533    5.220449759759   -0.605305713082
 C    0.586046807533    6.475139759759   -0.400305713082
 H    1.297986807533    7.300389759759   -0.419885713082
 C    0.294406807533    4.094429759759   -0.637485713082
 O    0.830766807533    2.970049759759   -0.851865713082
 N   -1.040453192467    4.217059759759   -0.407675713082
 C   -1.558043192467    5.446689759759   -0.202655713082
 N   -2.887773192467    5.520009759759   -0.016085713082
 H   -3.454073192467    4.696529759759   -0.179795713082
 H   -3.355813192467    6.412819759759    0.078574286918
 C   -0.755963192467    6.635059759759   -0.186365713082
 H   -1.184903192467    7.623819759759   -0.029095713082
 H    2.080256807533    5.085799759759   -0.791815713082
 K   -0.923363192467    1.856019759759    0.778714286918
 K    1.655876807533    0.762759759759   -1.529825713082
 O   -1.087791269245   -3.888947152647    1.115429711236
 C   -0.551432741504   -5.013328844307    0.901050826830
 N   -1.347431712189   -6.139340185095    0.868874003118
 H   -2.337281826059   -6.004695317702    1.055397258123
 C   -0.843079404044   -7.394036034753    0.663873826239
 H   -1.555026168368   -8.219290062010    0.683464726314
 C    0.498924763297   -7.553960268429    0.449920459310
 H    0.927860267797   -8.542715536355    0.292650013489
 C    1.301014555057   -6.365588781000    0.466198242309
 N    2.630738570138   -6.438909514154    0.279622047935
 N    0.783423962558   -5.135955592810    0.671223228979
 H    3.197038232361   -5.615435280321    0.443318954383
 H    3.098770983570   -7.331724765198    0.184951104235
