28

 N    1.100017208773    5.254807704526   -0.615160248431
 C    0.595657208773    6.509497704526   -0.410160248431
 H    1.307597208773    7.334747704526   -0.429740248431
 C    0.304017208773    4.128787704526   -0.647340248431
 O    0.840377208773    3.004407704526   -0.861720248431
 N   -1.030842791227    4.251417704526   -0.417530248431
 C   -1.548432791227    5.481047704526   -0.212510248431
 N   -2.878162791227    5.554367704526   -0.025940248431
 H   -3.444462791227    4.730887704526   -0.189650248431
 H   -3.346202791227    6.447177704526    0.068719751569
 C   -0.746352791227    6.669417704526   -0.196220248431
 H   -1.175292791227    7.658177704526   -0.038950248431
 H    2.089867208773    5.120157704526   -0.801670248431
 K   -0.913752791227    1.890377704526    0.768859751569
 K    1.665487208773    0.797117704526   -1.539680248431
 O   -1.104146012233   -3.947416652745    1.132199915607
 C   -0.567787484492   -5.071798344405    0.917821031201
 N   -1.363786455177   -6.197809685193    0.885644207490
 H   -2.353636569046   -6.063164817799    1.072167462494
 C   -0.859434147032   -7.452505534850    0.680644030610
 H   -1.571380911356   -8.277759562107    0.700234930685
 C    0.482570020310   -7.612429768527    0.466690663682
 H    0.911505524809   -8.601185036452    0.309420217861
 C    1.284659812070   -6.424058281097    0.482968446680
 N    2.614383827150   -6.497379014251    0.296392252307
 N    0.767069219570   -5.194425092908    0.687993433350
 H    3.180683489373   -5.673904780418    0.460089158754
 H    3.082416240582   -7.390194265295    0.201721308606
