28

 N    1.138458813735    5.392239483595   -0.654578389826
 C    0.634098813735    6.646929483595   -0.449578389826
 H    1.346038813735    7.472179483595   -0.469158389826
 C    0.342458813735    4.266219483595   -0.686758389826
 O    0.878818813735    3.141839483595   -0.901138389826
 N   -0.992401186265    4.388849483595   -0.456948389826
 C   -1.509991186265    5.618479483595   -0.251928389826
 N   -2.839721186265    5.691799483595   -0.065358389826
 H   -3.406021186265    4.868319483595   -0.229068389826
 H   -3.307761186265    6.584609483595    0.029301610174
 C   -0.707911186265    6.806849483595   -0.235638389826
 H   -1.136851186265    7.795609483595   -0.078368389826
 H    2.128308813735    5.257589483595   -0.841088389826
 K   -0.875311186265    2.027809483595    0.729441610174
 K    1.703928813735    0.934549483595   -1.579098389826
 O   -1.169564984184   -4.181294653134    1.199280733093
 C   -0.633206456443   -5.305676344793    0.984901848687
 N   -1.429205427128   -6.431687685581    0.952725024975
 H   -2.419055540998   -6.297042818188    1.139248279979
 C   -0.924853118984   -7.686383535239    0.747724848096
 H   -1.636799883307   -8.511637562496    0.767315748170
 C    0.417151048358   -7.846307768915    0.533771481167
 H    0.846086552858   -8.835063036841    0.376501035346
 C    1.219240840118   -6.657936281486    0.550049264166
 N    2.548964855199   -6.731257014640    0.363473069792
 N    0.701650247619   -5.428303093297    0.755074250835
 H    3.115264517421   -5.907782780807    0.527169976240
 H    3.016997268631   -7.624072265684    0.268802126092
