28

 N    1.148069214975    5.426597428362   -0.664432925174
 C    0.643709214975    6.681287428362   -0.459432925174
 H    1.355649214975    7.506537428362   -0.479012925174
 C    0.352069214975    4.300577428362   -0.696612925174
 O    0.888429214975    3.176197428362   -0.910992925174
 N   -0.982790785025    4.423207428362   -0.466802925174
 C   -1.500380785025    5.652837428362   -0.261782925174
 N   -2.830110785025    5.726157428362   -0.075212925174
 H   -3.396410785025    4.902677428362   -0.238922925174
 H   -3.298150785025    6.618967428362    0.019447074826
 C   -0.698300785025    6.841207428362   -0.245492925174
 H   -1.127240785025    7.829967428362   -0.088222925174
 H    2.137919214975    5.291947428362   -0.850942925174
 K   -0.865700785025    2.062167428362    0.719587074826
 K    1.713539214975    0.968907428362   -1.588952925174
 O   -1.185919727172   -4.239764153231    1.216050937464
 C   -0.649561199431   -5.364145844891    1.001672053058
 N   -1.445560170116   -6.490157185679    0.969495229346
 H   -2.435410283986   -6.355512318285    1.156018484351
 C   -0.941207861971   -7.744853035336    0.764495052467
 H   -1.653154626295   -8.570107062593    0.784085952542
 C    0.400796305370   -7.904777269013    0.550541685538
 H    0.829731809870   -8.893532536938    0.393271239717
 C    1.202886097130   -6.716405781583    0.566819468537
 N    2.532610112211   -6.789726514737    0.380243274163
 N    0.685295504631   -5.486772593394    0.771844455207
 H    3.098909774434   -5.966252280904    0.543940180611
 H    3.000642525643   -7.682541765781    0.285572330463
