28

 N    1.167290017456    5.495313317897   -0.684141995871
 C    0.662930017456    6.750003317897   -0.479141995871
 H    1.374870017456    7.575253317897   -0.498721995871
 C    0.371290017456    4.369293317897   -0.716321995871
 O    0.907650017456    3.244913317897   -0.930701995871
 N   -0.963569982544    4.491923317897   -0.486511995871
 C   -1.481159982544    5.721553317897   -0.281491995871
 N   -2.810889982544    5.794873317897   -0.094921995871
 H   -3.377189982544    4.971393317897   -0.258631995871
 H   -3.278929982544    6.687683317897   -0.000261995871
 C   -0.679079982544    6.909923317897   -0.265201995871
 H   -1.108019982544    7.898683317897   -0.107931995871
 H    2.157140017456    5.360663317897   -0.870651995871
 K   -0.846479982544    2.130883317897    0.699878004129
 K    1.732760017456    1.037623317897   -1.608661995871
 O   -1.218629213148   -4.356703153425    1.249591346207
 C   -0.682270685406   -5.481084845085    1.035212461801
 N   -1.478269656092   -6.607096185873    1.003035638089
 H   -2.468119769961   -6.472451318479    1.189558893093
 C   -0.973917347947   -7.861792035531    0.798035461210
 H   -1.685864112271   -8.687046062787    0.817626361284
 C    0.368086819395   -8.021716269207    0.584082094281
 H    0.797022323894   -9.010471537133    0.426811648460
 C    1.170176611155   -6.833344781778    0.600359877280
 N    2.499900626236   -6.906665514931    0.413783682906
 N    0.652586018656   -5.603711593588    0.805384863949
 H    3.066200288458   -6.083191281099    0.577480589354
 H    2.967933039667   -7.799480765975    0.319112739206
