28

 N    1.186510819936    5.564029207431   -0.703851066569
 C    0.682150819936    6.818719207431   -0.498851066569
 H    1.394090819936    7.643969207431   -0.518431066569
 C    0.390510819936    4.438009207431   -0.736031066569
 O    0.926870819936    3.313629207431   -0.950411066569
 N   -0.944349180064    4.560639207431   -0.506221066569
 C   -1.461939180064    5.790269207431   -0.301201066569
 N   -2.791669180064    5.863589207431   -0.114631066569
 H   -3.357969180064    5.040109207431   -0.278341066569
 H   -3.259709180064    6.756399207431   -0.019971066569
 C   -0.659859180064    6.978639207431   -0.284911066569
 H   -1.088799180064    7.967399207431   -0.127641066569
 H    2.176360819936    5.429379207431   -0.890361066569
 K   -0.827259180064    2.199599207431    0.680168933431
 K    1.751980819936    1.106339207431   -1.628371066569
 O   -1.251338699123   -4.473642153620    1.283131754949
 C   -0.714980171382   -5.598023845279    1.068752870543
 N   -1.510979142068   -6.724035186067    1.036576046832
 H   -2.500829255937   -6.589390318674    1.223099301836
 C   -1.006626833923   -7.978731035725    0.831575869952
 H   -1.718573598246   -8.803985062982    0.851166770027
 C    0.335377333419   -8.138655269401    0.617622503024
 H    0.764312837919   -9.127410537327    0.460352057203
 C    1.137467125179   -6.950283781972    0.633900286022
 N    2.467191140260   -7.023604515126    0.447324091649
 N    0.619876532680   -5.720650593783    0.838925272692
 H    3.033490802482   -6.200130281293    0.611020998096
 H    2.935223553692   -7.916419766170    0.352653147948
