28

 N    1.215342023657    5.667103041733   -0.733414672615
 C    0.710982023657    6.921793041733   -0.528414672615
 H    1.422922023657    7.747043041733   -0.547994672615
 C    0.419342023657    4.541083041733   -0.765594672615
 O    0.955702023657    3.416703041733   -0.979974672615
 N   -0.915517976343    4.663713041733   -0.535784672615
 C   -1.433107976343    5.893343041733   -0.330764672615
 N   -2.762837976343    5.966663041733   -0.144194672615
 H   -3.329137976343    5.143183041733   -0.307904672615
 H   -3.230877976343    6.859473041733   -0.049534672615
 C   -0.631027976343    7.081713041733   -0.314474672615
 H   -1.059967976343    8.070473041733   -0.157204672615
 H    2.205192023657    5.532453041733   -0.919924672615
 K   -0.798427976343    2.302673041733    0.650605327385
 K    1.780812023657    1.209413041733   -1.657934672615
 O   -1.300402928087   -4.649050653911    1.333442368063
 C   -0.764044400345   -5.773432345571    1.119063483657
 N   -1.560043371031   -6.899443686359    1.086886659946
 H   -2.549893484900   -6.764798818965    1.273409914950
 C   -1.055691062886   -8.154139536017    0.881886483066
 H   -1.767637827210   -8.979393563273    0.901477383141
 C    0.286313104456   -8.314063769693    0.667933116138
 H    0.715248608955   -9.302819037619    0.510662670317
 C    1.088402896216   -7.125692282264    0.684210899136
 N    2.418126911297   -7.199013015417    0.497634704763
 N    0.570812303716   -5.896059094074    0.889235885806
 H    2.984426573519   -6.375538781585    0.661331611210
 H    2.886159324728   -8.091828266461    0.402963761062
