28

 N    1.224952424898    5.701460986500   -0.743269207963
 C    0.720592424898    6.956150986500   -0.538269207963
 H    1.432532424898    7.781400986500   -0.557849207963
 C    0.428952424898    4.575440986500   -0.775449207963
 O    0.965312424898    3.451060986500   -0.989829207963
 N   -0.905907575102    4.698070986500   -0.545639207963
 C   -1.423497575102    5.927700986500   -0.340619207963
 N   -2.753227575102    6.001020986500   -0.154049207963
 H   -3.319527575102    5.177540986500   -0.317759207963
 H   -3.221267575102    6.893830986500   -0.059389207963
 C   -0.621417575102    7.116070986500   -0.324329207963
 H   -1.050357575102    8.104830986500   -0.167059207963
 H    2.214802424898    5.566810986500   -0.929779207963
 K   -0.788817575102    2.337030986500    0.640750792037
 K    1.790422424898    1.243770986500   -1.667789207963
 O   -1.316757671075   -4.707520154008    1.350212572435
 C   -0.780399143333   -5.831901845668    1.135833688029
 N   -1.576398114019   -6.957913186456    1.103656864317
 H   -2.566248227888   -6.823268319063    1.290180119321
 C   -1.072045805874   -8.212609036114    0.898656687438
 H   -1.783992570198   -9.037863063371    0.918247587512
 C    0.269958361468   -8.372533269790    0.684703320509
 H    0.698893865967   -9.361288537716    0.527432874688
 C    1.072048153228   -7.184161782361    0.700981103508
 N    2.401772168309   -7.257482515515    0.514404909134
 N    0.554457560729   -5.954528594171    0.906006090177
 H    2.968071830531   -6.434008281682    0.678101815582
 H    2.869804581740   -8.150297766558    0.419733965434
