28

 N    1.234562826138    5.735818931267   -0.753123743312
 C    0.730202826138    6.990508931267   -0.548123743312
 H    1.442142826138    7.815758931267   -0.567703743312
 C    0.438562826138    4.609798931267   -0.785303743312
 O    0.974922826138    3.485418931267   -0.999683743312
 N   -0.896297173862    4.732428931267   -0.555493743312
 C   -1.413887173862    5.962058931267   -0.350473743312
 N   -2.743617173862    6.035378931267   -0.163903743312
 H   -3.309917173862    5.211898931267   -0.327613743312
 H   -3.211657173862    6.928188931267   -0.069243743312
 C   -0.611807173862    7.150428931267   -0.334183743312
 H   -1.040747173862    8.139188931267   -0.176913743312
 H    2.224412826138    5.601168931267   -0.939633743312
 K   -0.779207173862    2.371388931267    0.630896256688
 K    1.800032826138    1.278128931267   -1.677643743312
 O   -1.333112414062   -4.765989654106    1.366982776806
 C   -0.796753886321   -5.890371345765    1.152603892400
 N   -1.592752857007   -7.016382686554    1.120427068688
 H   -2.582602970876   -6.881737819160    1.306950323693
 C   -1.088400548862   -8.271078536211    0.915426891809
 H   -1.800347313186   -9.096332563468    0.935017791884
 C    0.253603618480   -8.431002769887    0.701473524880
 H    0.682539122979   -9.419758037813    0.544203079059
 C    1.055693410240   -7.242631282458    0.717751307879
 N    2.385417425321   -7.315952015612    0.531175113505
 N    0.538102817741   -6.012998094269    0.922776294549
 H    2.951717087543   -6.492477781779    0.694872019953
 H    2.853449838752   -8.208767266656    0.436504169805
