28

 N    1.253783628619    5.804534820802   -0.772832814009
 C    0.749423628619    7.059224820802   -0.567832814009
 H    1.461363628619    7.884474820802   -0.587412814009
 C    0.457783628619    4.678514820802   -0.805012814009
 O    0.994143628619    3.554134820802   -1.019392814009
 N   -0.877076371381    4.801144820802   -0.575202814009
 C   -1.394666371381    6.030774820802   -0.370182814009
 N   -2.724396371381    6.104094820802   -0.183612814009
 H   -3.290696371381    5.280614820802   -0.347322814009
 H   -3.192436371381    6.996904820802   -0.088952814009
 C   -0.592586371381    7.219144820802   -0.353892814009
 H   -1.021526371381    8.207904820802   -0.196622814009
 H    2.243633628619    5.669884820802   -0.959342814009
 K   -0.759986371381    2.440104820802    0.611187185991
 K    1.819253628619    1.346844820802   -1.697352814009
 O   -1.365821900038   -4.882928654300    1.400523185549
 C   -0.829463372297   -6.007310345960    1.186144301143
 N   -1.625462342982   -7.133321686748    1.153967477431
 H   -2.615312456852   -6.998676819354    1.340490732435
 C   -1.121110034837   -8.388017536406    0.948967300552
 H   -1.833056799161   -9.213271563662    0.968558200626
 C    0.220894132504   -8.547941770082    0.735013933623
 H    0.649829637004   -9.536697038008    0.577743487802
 C    1.022983924264   -7.359570282653    0.751291716622
 N    2.352707939345   -7.432891015806    0.564715522248
 N    0.505393331765   -6.129937094463    0.956316703291
 H    2.919007601568   -6.609416781973    0.728412428696
 H    2.820740352777   -8.325706266850    0.470044578548
