28

 N    1.282614832340    5.907608655103   -0.802396420055
 C    0.778254832340    7.162298655103   -0.597396420055
 H    1.490194832340    7.987548655103   -0.616976420055
 C    0.486614832340    4.781588655103   -0.834576420055
 O    1.022974832340    3.657208655103   -1.048956420055
 N   -0.848245167660    4.904218655103   -0.604766420055
 C   -1.365835167660    6.133848655103   -0.399746420055
 N   -2.695565167660    6.207168655103   -0.213176420055
 H   -3.261865167660    5.383688655103   -0.376886420055
 H   -3.163605167660    7.099978655103   -0.118516420055
 C   -0.563755167660    7.322218655103   -0.383456420055
 H   -0.992695167660    8.310978655103   -0.226186420055
 H    2.272464832340    5.772958655103   -0.988906420055
 K   -0.731155167660    2.543178655103    0.581623579945
 K    1.848084832340    1.449918655103   -1.726916420055
 O   -1.414886129001   -5.058337154592    1.450833798663
 C   -0.878527601260   -6.182718846251    1.236454914257
 N   -1.674526571946   -7.308730187040    1.204278090545
 H   -2.664376685815   -7.174085319646    1.390801345549
 C   -1.170174263801   -8.563426036697    0.999277913666
 H   -1.882121028125   -9.388680063954    1.018868813740
 C    0.171829903541   -8.723350270373    0.785324546737
 H    0.600765408040   -9.712105538299    0.628054100916
 C    0.973919695301   -7.534978782944    0.801602329736
 N    2.303643710382   -7.608299516098    0.615026135362
 N    0.456329102802   -6.305345594755    1.006627316405
 H    2.869943372604   -6.784825282265    0.778723041810
 H    2.771676123813   -8.501114767142    0.520355191662
