28

 N    1.292225233580    5.941966599870   -0.812250955404
 C    0.787865233580    7.196656599870   -0.607250955404
 H    1.499805233580    8.021906599870   -0.626830955404
 C    0.496225233580    4.815946599870   -0.844430955404
 O    1.032585233580    3.691566599870   -1.058810955404
 N   -0.838634766420    4.938576599870   -0.614620955404
 C   -1.356224766420    6.168206599870   -0.409600955404
 N   -2.685954766420    6.241526599870   -0.223030955404
 H   -3.252254766420    5.418046599870   -0.386740955404
 H   -3.153994766420    7.134336599870   -0.128370955404
 C   -0.554144766420    7.356576599870   -0.393310955404
 H   -0.983084766420    8.345336599870   -0.236040955404
 H    2.282075233580    5.807316599870   -0.998760955404
 K   -0.721544766420    2.577536599870    0.571769044596
 K    1.857695233580    1.484276599870   -1.736770955404
 O   -1.431240871989   -5.116806654689    1.467604003034
 C   -0.894882344248   -6.241188346349    1.253225118628
 N   -1.690881314934   -7.367199687137    1.221048294916
 H   -2.680731428803   -7.232554819743    1.407571549921
 C   -1.186529006789   -8.621895536795    1.016048118037
 H   -1.898475771113   -9.447149564051    1.035639018112
 C    0.155475160553   -8.781819770471    0.802094751108
 H    0.584410665053   -9.770575038397    0.644824305287
 C    0.957564952313   -7.593448283041    0.818372534107
 N    2.287288967394   -7.666769016195    0.631796339733
 N    0.439974359814   -6.363815094852    1.023397520777
 H    2.853588629616   -6.843294782362    0.795493246181
 H    2.755321380826   -8.559584267239    0.537125396033
