28

 N    1.301835634821    5.976324544638   -0.822105490752
 C    0.797475634821    7.231014544638   -0.617105490752
 H    1.509415634821    8.056264544638   -0.636685490752
 C    0.505835634821    4.850304544638   -0.854285490752
 O    1.042195634821    3.725924544638   -1.068665490752
 N   -0.829024365179    4.972934544638   -0.624475490752
 C   -1.346614365179    6.202564544638   -0.419455490752
 N   -2.676344365179    6.275884544638   -0.232885490752
 H   -3.242644365179    5.452404544638   -0.396595490752
 H   -3.144384365179    7.168694544638   -0.138225490752
 C   -0.544534365179    7.390934544638   -0.403165490752
 H   -0.973474365179    8.379694544638   -0.245895490752
 H    2.291685634821    5.841674544638   -1.008615490752
 K   -0.711934365179    2.611894544638    0.561914509248
 K    1.867305634821    1.518634544638   -1.746625490752
 O   -1.447595614977   -5.175276154786    1.484374207405
 C   -0.911237087236   -6.299657846446    1.269995322999
 N   -1.707236057921   -7.425669187234    1.237818499288
 H   -2.697086171791   -7.291024319840    1.424341754292
 C   -1.202883749776   -8.680365036892    1.032818322408
 H   -1.914830514100   -9.505619064148    1.052409222483
 C    0.139120417565   -8.840289270568    0.818864955480
 H    0.568055922065   -9.829044538494    0.661594509659
 C    0.941210209325   -7.651917783139    0.835142738478
 N    2.270934224406   -7.725238516292    0.648566544105
 N    0.423619616826   -6.422284594949    1.040167725148
 H    2.837233886629   -6.901764282460    0.812263450552
 H    2.738966637838   -8.618053767336    0.553895600404
