28

 N    1.321056437301    6.045040434172   -0.841814561450
 C    0.816696437301    7.299730434172   -0.636814561450
 H    1.528636437301    8.124980434172   -0.656394561450
 C    0.525056437301    4.919020434172   -0.873994561450
 O    1.061416437301    3.794640434172   -1.088374561450
 N   -0.809803562699    5.041650434172   -0.644184561450
 C   -1.327393562699    6.271280434172   -0.439164561450
 N   -2.657123562699    6.344600434172   -0.252594561450
 H   -3.223423562699    5.521120434172   -0.416304561450
 H   -3.125163562699    7.237410434172   -0.157934561450
 C   -0.525313562699    7.459650434172   -0.422874561450
 H   -0.954253562699    8.448410434172   -0.265604561450
 H    2.310906437301    5.910390434172   -1.028324561450
 K   -0.692713562699    2.680610434172    0.542205438550
 K    1.886526437301    1.587350434172   -1.766334561450
 O   -1.480305100953   -5.292215154980    1.517914616148
 C   -0.943946573211   -6.416596846640    1.303535731742
 N   -1.739945543897   -7.542608187428    1.271358908030
 H   -2.729795657766   -7.407963320035    1.457882163035
 C   -1.235593235752   -8.797304037086    1.066358731151
 H   -1.947540000076   -9.622558064343    1.085949631226
 C    0.106410931590   -8.957228270762    0.852405364222
 H    0.535346436089   -9.945983538688    0.695134918401
 C    0.908500723350   -7.768856783333    0.868683147221
 N    2.238224738431   -7.842177516487    0.682106952847
 N    0.390910130850   -6.539223595143    1.073708133891
 H    2.804524400653   -7.018703282654    0.845803859295
 H    2.706257151862   -8.734992767530    0.587436009147
