28

 N    1.436381252186    6.457335771378   -0.960068985633
 C    0.932021252186    7.712025771378   -0.755068985633
 H    1.643961252186    8.537275771378   -0.774648985633
 C    0.640381252186    5.331315771378   -0.992248985633
 O    1.176741252186    4.206935771378   -1.206628985633
 N   -0.694478747814    5.453945771378   -0.762438985633
 C   -1.212068747814    6.683575771378   -0.557418985633
 N   -2.541798747814    6.756895771378   -0.370848985633
 H   -3.108098747814    5.933415771378   -0.534558985633
 H   -3.009838747814    7.649705771378   -0.276188985633
 C   -0.409988747814    7.871945771378   -0.541128985633
 H   -0.838928747814    8.860705771378   -0.383858985633
 H    2.426231252186    6.322685771378   -1.146578985633
 K   -0.577388747814    3.092905771378    0.423951014367
 K    2.001851252186    1.999645771378   -1.884588985633
 O   -1.676562016807   -5.993849156147    1.719157068604
 C   -1.140203489065   -7.118230847807    1.504778184198
 N   -1.936202459751   -8.244242188595    1.472601360486
 H   -2.926052573620   -8.109597321201    1.659124615491
 C   -1.431850151606   -9.498938038253    1.267601183607
 H   -2.143796915930  -10.324192065509    1.287192083682
 C   -0.089845984264   -9.658862271929    1.053647816678
 H    0.339089520235  -10.647617539855    0.896377370857
 C    0.712243807496   -8.470490784499    1.069925599677
 N    2.041967822577   -8.543811517653    0.883349405303
 N    0.194653214997   -7.240857596310    1.274950586347
 H    2.608267484799   -7.720337283820    1.047046311751
 H    2.510000236008   -9.436626768697    0.788678461603
