28

 N    1.445991653426    6.491693716146   -0.969923520982
 C    0.941631653426    7.746383716146   -0.764923520982
 H    1.653571653426    8.571633716146   -0.784503520982
 C    0.649991653426    5.365673716146   -1.002103520982
 O    1.186351653426    4.241293716146   -1.216483520982
 N   -0.684868346574    5.488303716146   -0.772293520982
 C   -1.202458346574    6.717933716146   -0.567273520982
 N   -2.532188346574    6.791253716146   -0.380703520982
 H   -3.098488346574    5.967773716146   -0.544413520982
 H   -3.000228346574    7.684063716146   -0.286043520982
 C   -0.400378346574    7.906303716146   -0.550983520982
 H   -0.829318346574    8.895063716146   -0.393713520982
 H    2.435841653426    6.357043716146   -1.156433520982
 K   -0.567778346574    3.127263716146    0.414096479018
 K    2.011461653426    2.034003716146   -1.894443520982
 O   -1.692916759794   -6.052318656244    1.735927272975
 C   -1.156558232053   -7.176700347904    1.521548388569
 N   -1.952557202739   -8.302711688692    1.489371564858
 H   -2.942407316608   -8.168066821298    1.675894819862
 C   -1.448204894594   -9.557407538350    1.284371387978
 H   -2.160151658918  -10.382661565606    1.303962288053
 C   -0.106200727252   -9.717331772026    1.070418021050
 H    0.322734777247  -10.706087039952    0.913147575229
 C    0.695889064508   -8.528960284597    1.086695804048
 N    2.025613079589   -8.602281017750    0.900119609675
 N    0.178298472009   -7.299327096407    1.291720790718
 H    2.591912741811   -7.778806783918    1.063816516122
 H    2.493645493020   -9.495096268794    0.805448665974
