28

 N    1.465212455907    6.560409605680   -0.989632591679
 C    0.960852455907    7.815099605680   -0.784632591679
 H    1.672792455907    8.640349605680   -0.804212591679
 C    0.669212455907    5.434389605680   -1.021812591679
 O    1.205572455907    4.310009605680   -1.236192591679
 N   -0.665647544093    5.557019605680   -0.792002591679
 C   -1.183237544093    6.786649605680   -0.586982591679
 N   -2.512967544093    6.859969605680   -0.400412591679
 H   -3.079267544093    6.036489605680   -0.564122591679
 H   -2.981007544093    7.752779605680   -0.305752591679
 C   -0.381157544093    7.975019605680   -0.570692591679
 H   -0.810097544093    8.963779605680   -0.413422591679
 H    2.455062455907    6.425759605680   -1.176142591679
 K   -0.548557544093    3.195979605680    0.394387408321
 K    2.030682455907    2.102719605680   -1.914152591679
 O   -1.725626245770   -6.169257656438    1.769467681718
 C   -1.189267718029   -7.293639348098    1.555088797312
 N   -1.985266688714   -8.419650688886    1.522911973600
 H   -2.975116802584   -8.285005821493    1.709435228605
 C   -1.480914380569   -9.674346538544    1.317911796721
 H   -2.192861144893  -10.499600565801    1.337502696796
 C   -0.138910213228   -9.834270772220    1.103958429792
 H    0.290025291272  -10.823026040146    0.946687983971
 C    0.663179578532   -8.645899284791    1.120236212791
 N    1.992903593613   -8.719220017945    0.933660018417
 N    0.145588986033   -7.416266096601    1.325261199461
 H    2.559203255836   -7.895745784112    1.097356924865
 H    2.460936007045   -9.612035268988    0.838989074717
