7

 H   -0.935125203270    1.703455191133    0.000000000000
 H    0.604433796730    1.794434191133    0.902247000000
 H    0.604433796730    1.794434191133   -0.902247000000
 C    0.120622796730    1.397914191133    0.000000000000
 S    0.120622796730   -0.434811808867    0.000000000000
 H    1.461205796730   -0.591202808867    0.000000000000
LI   -1.005210228189   -1.084811808867    0.000000000000
