7

 H   -0.913038303017    1.716207068939    0.000000000000
 H    0.626520696983    1.807186068939    0.902247000000
 H    0.626520696983    1.807186068939   -0.902247000000
 C    0.142709696983    1.410666068939    0.000000000000
 S    0.142709696983   -0.422059931061    0.000000000000
 H    1.483292696983   -0.578450931061    0.000000000000
LI   -1.156328408694   -1.172059931061    0.000000000000
