7

 H   -0.901994852891    1.722583007843    0.000000000000
 H    0.637564147109    1.813562007843    0.902247000000
 H    0.637564147109    1.813562007843   -0.902247000000
 C    0.153753147109    1.417042007843    0.000000000000
 S    0.153753147109   -0.415683992157    0.000000000000
 H    1.494336147109   -0.572074992157    0.000000000000
LI   -1.231887498946   -1.215683992157    0.000000000000
