7

 H   -0.868864502513    1.741710824552    0.000000000000
 H    0.670694497487    1.832689824552    0.902247000000
 H    0.670694497487    1.832689824552   -0.902247000000
 C    0.186883497487    1.436169824552    0.000000000000
 S    0.186883497487   -0.396556175448    0.000000000000
 H    1.527466497487   -0.552947175448    0.000000000000
LI   -1.458564769703   -1.346556175448    0.000000000000
