7

 H   -0.857821052386    1.748086763455    0.000000000000
 H    0.681737947614    1.839065763455    0.902247000000
 H    0.681737947614    1.839065763455   -0.902247000000
 C    0.197926947614    1.442545763455    0.000000000000
 S    0.197926947614   -0.390180236545    0.000000000000
 H    1.538509947614   -0.546571236545    0.000000000000
LI   -1.534123859955   -1.390180236545    0.000000000000
