7

 H   -0.835734152134    1.760838641261    0.000000000000
 H    0.703824847866    1.851817641261    0.902247000000
 H    0.703824847866    1.851817641261   -0.902247000000
 C    0.220013847866    1.455297641261    0.000000000000
 S    0.220013847866   -0.377428358739    0.000000000000
 H    1.560596847866   -0.533819358739    0.000000000000
LI   -1.685242040460   -1.477428358739    0.000000000000
