7

 H   -0.824690702008    1.767214580165    0.000000000000
 H    0.714868297992    1.858193580165    0.902247000000
 H    0.714868297992    1.858193580165   -0.902247000000
 C    0.231057297992    1.461673580165    0.000000000000
 S    0.231057297992   -0.371052419835    0.000000000000
 H    1.571640297992   -0.527443419835    0.000000000000
LI   -1.760801130712   -1.521052419835    0.000000000000
