7

 H   -0.736343100999    1.818222091390    0.000000000000
 H    0.803215899001    1.909201091390    0.902247000000
 H    0.803215899001    1.909201091390   -0.902247000000
 C    0.319404899001    1.512681091390    0.000000000000
 S    0.319404899001   -0.320044908610    0.000000000000
 H    1.659987899001   -0.476435908610    0.000000000000
LI   -2.365273852730   -1.870044908610    0.000000000000
