7

 H   -0.725299650872    1.824598030293    0.000000000000
 H    0.814259349128    1.915577030293    0.902247000000
 H    0.814259349128    1.915577030293   -0.902247000000
 C    0.330448349128    1.519057030293    0.000000000000
 S    0.330448349128   -0.313668969707    0.000000000000
 H    1.671031349128   -0.470059969707    0.000000000000
LI   -2.440832942983   -1.913668969707    0.000000000000
