7

 H   -0.703212750620    1.837349908099    0.000000000000
 H    0.836346249380    1.928328908099    0.902247000000
 H    0.836346249380    1.928328908099   -0.902247000000
 C    0.352535249380    1.531808908099    0.000000000000
 S    0.352535249380   -0.300917091901    0.000000000000
 H    1.693118249380   -0.457308091901    0.000000000000
LI   -2.591951123487   -2.000917091901    0.000000000000
