7

 H   -0.681125850368    1.850101785905    0.000000000000
 H    0.858433149632    1.941080785905    0.902247000000
 H    0.858433149632    1.941080785905   -0.902247000000
 C    0.374622149632    1.544560785905    0.000000000000
 S    0.374622149632   -0.288165214095    0.000000000000
 H    1.715205149632   -0.444556214095    0.000000000000
LI   -2.743069303992   -2.088165214095    0.000000000000
