7

 H   -0.659038950115    1.862853663711    0.000000000000
 H    0.880520049885    1.953832663711    0.902247000000
 H    0.880520049885    1.953832663711   -0.902247000000
 C    0.396709049885    1.557312663711    0.000000000000
 S    0.396709049885   -0.275413336289    0.000000000000
 H    1.737292049885   -0.431804336289    0.000000000000
LI   -2.894187484496   -2.175413336289    0.000000000000
