7

 H   -0.625908599737    1.881981480421    0.000000000000
 H    0.913650400263    1.972960480421    0.902247000000
 H    0.913650400263    1.972960480421   -0.902247000000
 C    0.429839400263    1.576440480421    0.000000000000
 S    0.429839400263   -0.256285519579    0.000000000000
 H    1.770422400263   -0.412676519579    0.000000000000
LI   -3.120864755253   -2.306285519579    0.000000000000
