7

 H   -0.603821699485    1.894733358227    0.000000000000
 H    0.935737300515    1.985712358227    0.902247000000
 H    0.935737300515    1.985712358227   -0.902247000000
 C    0.451926300515    1.589192358227    0.000000000000
 S    0.451926300515   -0.243533641773    0.000000000000
 H    1.792509300515   -0.399924641773    0.000000000000
LI   -3.271982935758   -2.393533641773    0.000000000000
