7

 H   -0.548604448854    1.926613052743    0.000000000000
 H    0.990954551146    2.017592052743    0.902247000000
 H    0.990954551146    2.017592052743   -0.902247000000
 C    0.507143551146    1.621072052743    0.000000000000
 S    0.507143551146   -0.211653947257    0.000000000000
 H    1.847726551146   -0.368044947257    0.000000000000
LI   -3.649778387019   -2.611653947257    0.000000000000
