7

 H   -0.482343748097    1.964868686161    0.000000000000
 H    1.057215251903    2.055847686161    0.902247000000
 H    1.057215251903    2.055847686161   -0.902247000000
 C    0.573404251903    1.659327686161    0.000000000000
 S    0.573404251903   -0.173398313839    0.000000000000
 H    1.913987251903   -0.329789313839    0.000000000000
LI   -4.103132928533   -2.873398313839    0.000000000000
