7

 H   -0.471300297970    1.971244625065    0.000000000000
 H    1.068258702030    2.062223625065    0.902247000000
 H    1.068258702030    2.062223625065   -0.902247000000
 C    0.584447702030    1.665703625065    0.000000000000
 S    0.584447702030   -0.167022374935    0.000000000000
 H    1.925030702030   -0.323413374935    0.000000000000
LI   -4.178692018785   -2.917022374935    0.000000000000
