7

 H   -0.416083047340    2.003124319580    0.000000000000
 H    1.123475952660    2.094103319580    0.902247000000
 H    1.123475952660    2.094103319580   -0.902247000000
 C    0.639664952660    1.697583319580    0.000000000000
 S    0.639664952660   -0.135142680420    0.000000000000
 H    1.980247952660   -0.291533680420    0.000000000000
LI   -4.556487470046   -3.135142680420    0.000000000000
