7

 H   -0.349822346583    2.041379952999    0.000000000000
 H    1.189736653417    2.132358952999    0.902247000000
 H    1.189736653417    2.132358952999   -0.902247000000
 C    0.705925653417    1.735838952999    0.000000000000
 S    0.705925653417   -0.096887047001    0.000000000000
 H    2.046508653417   -0.253278047001    0.000000000000
LI   -5.009842011560   -3.396887047001    0.000000000000
