7

 H   -0.338778896456    2.047755891902    0.000000000000
 H    1.200780103544    2.138734891902    0.902247000000
 H    1.200780103544    2.138734891902   -0.902247000000
 C    0.716969103544    1.742214891902    0.000000000000
 S    0.716969103544   -0.090511108098    0.000000000000
 H    2.057552103544   -0.246902108098    0.000000000000
LI   -5.085401101812   -3.440511108098    0.000000000000
