7

 H   -0.239387845321    2.105139342030    0.000000000000
 H    1.300171154679    2.196118342030    0.902247000000
 H    1.300171154679    2.196118342030   -0.902247000000
 C    0.816360154679    1.799598342030    0.000000000000
 S    0.816360154679   -0.033127657970    0.000000000000
 H    2.156943154679   -0.189518657970    0.000000000000
LI   -5.765432914083   -3.833127657970    0.000000000000
