7

 H   -0.206257494942    2.124267158740    0.000000000000
 H    1.333301505058    2.215246158740    0.902247000000
 H    1.333301505058    2.215246158740   -0.902247000000
 C    0.849490505058    1.818726158740    0.000000000000
 S    0.849490505058   -0.013999841260    0.000000000000
 H    2.190073505058   -0.170390841260    0.000000000000
LI   -5.992110184839   -3.963999841260    0.000000000000
