7

 H   -0.195214044816    2.130643097643    0.000000000000
 H    1.344344955184    2.221622097643    0.902247000000
 H    1.344344955184    2.221622097643   -0.902247000000
 C    0.860533955184    1.825102097643    0.000000000000
 S    0.860533955184   -0.007623902357    0.000000000000
 H    2.201116955184   -0.164014902357    0.000000000000
LI   -6.067669275092   -4.007623902357    0.000000000000
