7

 H   -0.184170594690    2.137019036546    0.000000000000
 H    1.355388405310    2.227998036546    0.902247000000
 H    1.355388405310    2.227998036546   -0.902247000000
 C    0.871577405310    1.831478036546    0.000000000000
 S    0.871577405310   -0.001247963454    0.000000000000
 H    2.212160405310   -0.157638963454    0.000000000000
LI   -6.143228365344   -4.051247963454    0.000000000000
