7

 H   -0.151040244311    2.156146853255    0.000000000000
 H    1.388518755689    2.247125853255    0.902247000000
 H    1.388518755689    2.247125853255   -0.902247000000
 C    0.904707755689    1.850605853255    0.000000000000
 S    0.904707755689    0.017879853255    0.000000000000
 H    2.245290755689   -0.138511146745    0.000000000000
LI   -6.369905636101   -4.182120146745    0.000000000000
