7

 H   -0.139996794185    2.162522792158    0.000000000000
 H    1.399562205815    2.253501792158    0.902247000000
 H    1.399562205815    2.253501792158   -0.902247000000
 C    0.915751205815    1.856981792158    0.000000000000
 S    0.915751205815    0.024255792158    0.000000000000
 H    2.256334205815   -0.132135207842    0.000000000000
LI   -6.445464726353   -4.225744207842    0.000000000000
