7

 H   -0.128953344059    2.168898731062    0.000000000000
 H    1.410605655941    2.259877731062    0.902247000000
 H    1.410605655941    2.259877731062   -0.902247000000
 C    0.926794655941    1.863357731062    0.000000000000
 S    0.926794655941    0.030631731062    0.000000000000
 H    2.267377655941   -0.125759268938    0.000000000000
LI   -6.521023816605   -4.269368268938    0.000000000000
