7

 H   -0.117909893933    2.175274669965    0.000000000000
 H    1.421649106067    2.266253669965    0.902247000000
 H    1.421649106067    2.266253669965   -0.902247000000
 C    0.937838106067    1.869733669965    0.000000000000
 S    0.937838106067    0.037007669965    0.000000000000
 H    2.278421106067   -0.119383330035    0.000000000000
LI   -6.596582906858   -4.312992330035    0.000000000000
