7

 H   -0.062692643302    2.207154364480    0.000000000000
 H    1.476866356698    2.298133364480    0.902247000000
 H    1.476866356698    2.298133364480   -0.902247000000
 C    0.993055356698    1.901613364480    0.000000000000
 S    0.993055356698    0.068887364480    0.000000000000
 H    2.333638356698   -0.087503635520    0.000000000000
LI   -6.974378358119   -4.531112635520    0.000000000000
