7

 H   -0.051649193176    2.213530303383    0.000000000000
 H    1.487909806824    2.304509303383    0.902247000000
 H    1.487909806824    2.304509303383   -0.902247000000
 C    1.004098806824    1.907989303383    0.000000000000
 S    1.004098806824    0.075263303383    0.000000000000
 H    2.344681806824   -0.081127696617    0.000000000000
LI   -7.049937448371   -4.574736696617    0.000000000000
