7

 H   -0.040605743050    2.219906242287    0.000000000000
 H    1.498953256950    2.310885242287    0.902247000000
 H    1.498953256950    2.310885242287   -0.902247000000
 C    1.015142256950    1.914365242287    0.000000000000
 S    1.015142256950    0.081639242287    0.000000000000
 H    2.355725256950   -0.074751757713    0.000000000000
LI   -7.125496538623   -4.618360757713    0.000000000000
