7

 H   -0.018518842797    2.232658120093    0.000000000000
 H    1.521040157203    2.323637120093    0.902247000000
 H    1.521040157203    2.323637120093   -0.902247000000
 C    1.037229157203    1.927117120093    0.000000000000
 S    1.037229157203    0.094391120093    0.000000000000
 H    2.377812157203   -0.061999879907    0.000000000000
LI   -7.276614719128   -4.705608879907    0.000000000000
