7

 H   -0.007475392671    2.239034058996    0.000000000000
 H    1.532083607329    2.330013058996    0.902247000000
 H    1.532083607329    2.330013058996   -0.902247000000
 C    1.048272607329    1.933493058996    0.000000000000
 S    1.048272607329    0.100767058996    0.000000000000
 H    2.388855607329   -0.055623941004    0.000000000000
LI   -7.352173809380   -4.749232941004    0.000000000000
