7

 H    0.003568057455    2.245409997899    0.000000000000
 H    1.543127057455    2.336388997899    0.902247000000
 H    1.543127057455    2.336388997899   -0.902247000000
 C    1.059316057455    1.939868997899    0.000000000000
 S    1.059316057455    0.107142997899    0.000000000000
 H    2.399899057455   -0.049248002101    0.000000000000
LI   -7.427732899633   -4.792857002101    0.000000000000
