7

 H    0.014611507581    2.251785936802    0.000000000000
 H    1.554170507581    2.342764936802    0.902247000000
 H    1.554170507581    2.342764936802   -0.902247000000
 C    1.070359507581    1.946244936802    0.000000000000
 S    1.070359507581    0.113518936802    0.000000000000
 H    2.410942507581   -0.042872063198    0.000000000000
LI   -7.503291989885   -4.836481063198    0.000000000000
