13

 C    1.435620210653    1.619444579870    0.369758188795
 H    1.470140210653    2.720296579870    0.369758188795
 H    1.960203210653    1.250299579870    1.263377188795
 H    1.960203210653    1.250299579870   -0.523860811205
 C   -0.007159789347    1.142393579870    0.369758188795
 H   -0.546333789347    1.513546579870   -0.525007811205
 H   -0.546333789347    1.513546579870    1.264524188795
 O   -0.006594789347   -0.286113420130    0.369758188795
 C   -1.336181789347   -0.796520420130    0.369758188795
 H   -1.889564789347   -0.465741420130   -0.529374811205
 H   -1.889564789347   -0.465741420130    1.268891188795
 H   -1.263098789347   -1.891995420130    0.369758188795
 K   -0.006459514290   -0.628133536704   -0.569934431991
