13

 C    1.435609564819    1.646360772684    0.443709826554
 H    1.470129564819    2.747212772684    0.443709826554
 H    1.960192564819    1.277215772684    1.337328826554
 H    1.960192564819    1.277215772684   -0.449909173446
 C   -0.007170435181    1.169309772684    0.443709826554
 H   -0.546344435181    1.540462772684   -0.451056173446
 H   -0.546344435181    1.540462772684    1.338475826554
 O   -0.006605435181   -0.259197227316    0.443709826554
 C   -1.336192435181   -0.769604227316    0.443709826554
 H   -1.889575435181   -0.438825227316   -0.455423173446
 H   -1.889575435181   -0.438825227316    1.342842826554
 H   -1.263109435181   -1.865079227316    0.443709826554
 K   -0.006443105113   -0.669621367204   -0.683921318389
