13

 C    1.435593596067    1.686735061906    0.554637283192
 H    1.470113596067    2.787587061906    0.554637283192
 H    1.960176596067    1.317590061906    1.448256283192
 H    1.960176596067    1.317590061906   -0.338981716808
 C   -0.007186403933    1.209684061906    0.554637283192
 H   -0.546360403933    1.580837061906   -0.340128716808
 H   -0.546360403933    1.580837061906    1.449403283192
 O   -0.006621403933   -0.218822938094    0.554637283192
 C   -1.336208403933   -0.729229938094    0.554637283192
 H   -1.889591403933   -0.398450938094   -0.344495716808
 H   -1.889591403933   -0.398450938094    1.453770283192
 H   -1.263125403933   -1.824704938094    0.554637283192
 K   -0.006418491347   -0.731853112955   -0.854901647987
