13

 C    1.435582950233    1.713651254720    0.628588920951
 H    1.470102950233    2.814503254720    0.628588920951
 H    1.960165950233    1.344506254720    1.522207920951
 H    1.960165950233    1.344506254720   -0.265030079049
 C   -0.007197049767    1.236600254720    0.628588920951
 H   -0.546371049767    1.607753254720   -0.266177079049
 H   -0.546371049767    1.607753254720    1.523354920951
 O   -0.006632049767   -0.191906745280    0.628588920951
 C   -1.336219049767   -0.702313745280    0.628588920951
 H   -1.889602049767   -0.371534745280   -0.270544079049
 H   -1.889602049767   -0.371534745280    1.527721920951
 H   -1.263136049767   -1.797788745280    0.628588920951
 K   -0.006402082170   -0.773340943456   -0.968888534385
