13

 C    1.435566981481    1.754025543941    0.739516377590
 H    1.470086981481    2.854877543941    0.739516377590
 H    1.960149981481    1.384880543941    1.633135377590
 H    1.960149981481    1.384880543941   -0.154102622410
 C   -0.007213018519    1.276974543941    0.739516377590
 H   -0.546387018519    1.648127543941   -0.155249622410
 H   -0.546387018519    1.648127543941    1.634282377590
 O   -0.006648018519   -0.151532456059    0.739516377590
 C   -1.336235018519   -0.661939456059    0.739516377590
 H   -1.889618018519   -0.331160456059   -0.159616622410
 H   -1.889618018519   -0.331160456059    1.638649377590
 H   -1.263152018519   -1.757414456059    0.739516377590
 K   -0.006377468405   -0.835572689206   -1.139868863982
