13

 C    1.435561658564    1.767483640348    0.776492196469
 H    1.470081658564    2.868335640348    0.776492196469
 H    1.960144658564    1.398338640348    1.670111196469
 H    1.960144658564    1.398338640348   -0.117126803531
 C   -0.007218341436    1.290432640348    0.776492196469
 H   -0.546392341436    1.661585640348   -0.118273803531
 H   -0.546392341436    1.661585640348    1.671258196469
 O   -0.006653341436   -0.138074359652    0.776492196469
 C   -1.336240341436   -0.648481359652    0.776492196469
 H   -1.889623341436   -0.317702359652   -0.122640803531
 H   -1.889623341436   -0.317702359652    1.675625196469
 H   -1.263157341436   -1.743956359652    0.776492196469
 K   -0.006369263816   -0.856316604457   -1.196862307181
