13

 C    1.435556335647    1.780941736755    0.813468015349
 H    1.470076335647    2.881793736755    0.813468015349
 H    1.960139335647    1.411796736755    1.707087015349
 H    1.960139335647    1.411796736755   -0.080150984651
 C   -0.007223664353    1.303890736755    0.813468015349
 H   -0.546397664353    1.675043736755   -0.081297984651
 H   -0.546397664353    1.675043736755    1.708234015349
 O   -0.006658664353   -0.124616263245    0.813468015349
 C   -1.336245664353   -0.635023263245    0.813468015349
 H   -1.889628664353   -0.304244263245   -0.085664984651
 H   -1.889628664353   -0.304244263245    1.712601015349
 H   -1.263162664353   -1.730498263245    0.813468015349
 K   -0.006361059228   -0.877060519707   -1.253855750380
