13

 C    1.435545689813    1.807857929570    0.887419653108
 H    1.470065689813    2.908709929570    0.887419653108
 H    1.960128689813    1.438712929570    1.781038653108
 H    1.960128689813    1.438712929570   -0.006199346892
 C   -0.007234310187    1.330806929570    0.887419653108
 H   -0.546408310187    1.701959929570   -0.007346346892
 H   -0.546408310187    1.701959929570    1.782185653108
 O   -0.006669310187   -0.097700070430    0.887419653108
 C   -1.336256310187   -0.608107070430    0.887419653108
 H   -1.889639310187   -0.277328070430   -0.011713346892
 H   -1.889639310187   -0.277328070430    1.786552653108
 H   -1.263173310187   -1.703582070430    0.887419653108
 K   -0.006344650051   -0.918548350208   -1.367842636778
