13

 C    1.435513752309    1.888606508012    1.109274566385
 H    1.470033752309    2.989458508012    1.109274566385
 H    1.960096752309    1.519461508012    2.002893566385
 H    1.960096752309    1.519461508012    0.215655566385
 C   -0.007266247691    1.411555508012    1.109274566385
 H   -0.546440247691    1.782708508012    0.214508566385
 H   -0.546440247691    1.782708508012    2.004040566385
 O   -0.006701247691   -0.016951491988    1.109274566385
 C   -1.336288247691   -0.527358491988    1.109274566385
 H   -1.889671247691   -0.196579491988    0.210141566385
 H   -1.889671247691   -0.196579491988    2.008407566385
 H   -1.263205247691   -1.622833491988    1.109274566385
 K   -0.006295422520   -1.043011841709   -1.709803295973
