13

 C    1.435508429392    1.902064604419    1.146250385264
 H    1.470028429392    3.002916604419    1.146250385264
 H    1.960091429392    1.532919604419    2.039869385264
 H    1.960091429392    1.532919604419    0.252631385264
 C   -0.007271570608    1.425013604419    1.146250385264
 H   -0.546445570608    1.796166604419    0.251484385264
 H   -0.546445570608    1.796166604419    2.041016385264
 O   -0.006706570608   -0.003493395581    1.146250385264
 C   -1.336293570608   -0.513900395581    1.146250385264
 H   -1.889676570608   -0.183121395581    0.247117385264
 H   -1.889676570608   -0.183121395581    2.045383385264
 H   -1.263210570608   -1.609375395581    1.146250385264
 K   -0.006287217931   -1.063755756960   -1.766796739172
