13

 C    1.435487137723    1.955896990048    1.294153660782
 H    1.470007137723    3.056748990048    1.294153660782
 H    1.960070137723    1.586751990048    2.187772660782
 H    1.960070137723    1.586751990048    0.400534660782
 C   -0.007292862277    1.478845990048    1.294153660782
 H   -0.546466862277    1.849998990048    0.399387660782
 H   -0.546466862277    1.849998990048    2.188919660782
 O   -0.006727862277    0.050338990048    1.294153660782
 C   -1.336314862277   -0.460068009952    1.294153660782
 H   -1.889697862277   -0.129289009952    0.395020660782
 H   -1.889697862277   -0.129289009952    2.193286660782
 H   -1.263231862277   -1.555543009952    1.294153660782
 K   -0.006254399577   -1.146731417961   -1.994770511969
