13

 C    1.435471168972    1.996271279269    1.405081117420
 H    1.469991168972    3.097123279269    1.405081117420
 H    1.960054168972    1.627126279269    2.298700117421
 H    1.960054168972    1.627126279269    0.511462117420
 C   -0.007308831028    1.519220279269    1.405081117420
 H   -0.546482831028    1.890373279269    0.510315117420
 H   -0.546482831028    1.890373279269    2.299847117420
 O   -0.006743831028    0.090713279269    1.405081117420
 C   -1.336330831028   -0.419693720731    1.405081117420
 H   -1.889713831028   -0.088914720731    0.505948117420
 H   -1.889713831028   -0.088914720731    2.304214117420
 H   -1.263247831028   -1.515168720731    1.405081117420
 K   -0.006229785811   -1.208963163712   -2.165750841566
