13

 C    1.435465846055    2.009729375676    1.442056936300
 H    1.469985846055    3.110581375676    1.442056936300
 H    1.960048846055    1.640584375676    2.335675936300
 H    1.960048846055    1.640584375676    0.548437936300
 C   -0.007314153945    1.532678375676    1.442056936300
 H   -0.546488153945    1.903831375676    0.547290936300
 H   -0.546488153945    1.903831375676    2.336822936300
 O   -0.006749153945    0.104171375676    1.442056936300
 C   -1.336336153945   -0.406235624324    1.442056936300
 H   -1.889719153945   -0.075456624324    0.542923936300
 H   -1.889719153945   -0.075456624324    2.341189936300
 H   -1.263253153945   -1.501710624324    1.442056936300
 K   -0.006221581223   -1.229707078962   -2.222744284765
