13

 C    1.435439231469    2.077019857712    1.626936030697
 H    1.469959231469    3.177871857712    1.626936030697
 H    1.960022231469    1.707874857712    2.520555030697
 H    1.960022231469    1.707874857712    0.733317030697
 C   -0.007340768531    1.599968857712    1.626936030697
 H   -0.546514768531    1.971121857712    0.732170030697
 H   -0.546514768531    1.971121857712    2.521702030697
 O   -0.006775768531    0.171461857712    1.626936030697
 C   -1.336362768531   -0.338945142288    1.626936030697
 H   -1.889745768531   -0.008166142288    0.727803030697
 H   -1.889745768531   -0.008166142288    2.526069030697
 H   -1.263279768531   -1.434420142288    1.626936030697
 K   -0.006180558280   -1.333426655213   -2.507711500761
