13

 C    1.435433908552    2.090477954119    1.663911849577
 H    1.469953908552    3.191329954119    1.663911849577
 H    1.960016908552    1.721332954119    2.557530849577
 H    1.960016908552    1.721332954119    0.770292849577
 C   -0.007346091448    1.613426954119    1.663911849577
 H   -0.546520091448    1.984579954119    0.769145849577
 H   -0.546520091448    1.984579954119    2.558677849577
 O   -0.006781091448    0.184919954119    1.663911849577
 C   -1.336368091448   -0.325487045881    1.663911849577
 H   -1.889751091448    0.005291954119    0.764778849577
 H   -1.889751091448    0.005291954119    2.563044849577
 H   -1.263285091448   -1.420962045881    1.663911849577
 K   -0.006172353692   -1.354170570464   -2.564704943960
