13

 C    1.435423262717    2.117394146933    1.737863487336
 H    1.469943262717    3.218246146933    1.737863487336
 H    1.960006262717    1.748249146933    2.631482487336
 H    1.960006262717    1.748249146933    0.844244487336
 C   -0.007356737283    1.640343146933    1.737863487336
 H   -0.546530737283    2.011496146933    0.843097487336
 H   -0.546530737283    2.011496146933    2.632629487336
 O   -0.006791737283    0.211836146933    1.737863487336
 C   -1.336378737283   -0.298570853067    1.737863487336
 H   -1.889761737283    0.032208146933    0.838730487336
 H   -1.889761737283    0.032208146933    2.636996487336
 H   -1.263295737283   -1.394045853067    1.737863487336
 K   -0.006155944515   -1.395658400964   -2.678691830358
