13

 C    1.435412616883    2.144310339747    1.811815125095
 H    1.469932616883    3.245162339747    1.811815125095
 H    1.959995616883    1.775165339747    2.705434125095
 H    1.959995616883    1.775165339747    0.918196125095
 C   -0.007367383117    1.667259339747    1.811815125095
 H   -0.546541383117    2.038412339747    0.917049125095
 H   -0.546541383117    2.038412339747    2.706581125095
 O   -0.006802383117    0.238752339747    1.811815125095
 C   -1.336389383117   -0.271654660253    1.811815125095
 H   -1.889772383117    0.059124339747    0.912682125095
 H   -1.889772383117    0.059124339747    2.710948125095
 H   -1.263306383117   -1.367129660253    1.811815125095
 K   -0.006139535338   -1.437146231465   -2.792678716756
