13

 C    1.435407293966    2.157768436154    1.848790943974
 H    1.469927293966    3.258620436154    1.848790943974
 H    1.959990293966    1.788623436154    2.742409943974
 H    1.959990293966    1.788623436154    0.955171943974
 C   -0.007372706034    1.680717436154    1.848790943974
 H   -0.546546706034    2.051870436154    0.954024943974
 H   -0.546546706034    2.051870436154    2.743556943974
 O   -0.006807706034    0.252210436154    1.848790943974
 C   -1.336394706034   -0.258196563846    1.848790943974
 H   -1.889777706034    0.072582436154    0.949657943974
 H   -1.889777706034    0.072582436154    2.747923943974
 H   -1.263311706034   -1.353671563846    1.848790943974
 K   -0.006131330749   -1.457890146715   -2.849672159955
