13

 C    1.435391325214    2.198142725375    1.959718400613
 H    1.469911325214    3.298994725375    1.959718400613
 H    1.959974325214    1.828997725375    2.853337400613
 H    1.959974325214    1.828997725375    1.066099400613
 C   -0.007388674786    1.721091725375    1.959718400613
 H   -0.546562674786    2.092244725375    1.064952400613
 H   -0.546562674786    2.092244725375    2.854484400613
 O   -0.006823674786    0.292584725375    1.959718400613
 C   -1.336410674786   -0.217822274625    1.959718400613
 H   -1.889793674786    0.112956725375    1.060585400613
 H   -1.889793674786    0.112956725375    2.858851400613
 H   -1.263327674786   -1.313297274625    1.959718400613
 K   -0.006106716984   -1.520121892466   -3.020652489553
