13

 C    1.435386002297    2.211600821783    1.996694219492
 H    1.469906002297    3.312452821783    1.996694219492
 H    1.959969002297    1.842455821783    2.890313219492
 H    1.959969002297    1.842455821783    1.103075219492
 C   -0.007393997703    1.734549821783    1.996694219492
 H   -0.546567997703    2.105702821783    1.101928219492
 H   -0.546567997703    2.105702821783    2.891460219492
 O   -0.006828997703    0.306042821783    1.996694219492
 C   -1.336415997703   -0.204364178217    1.996694219492
 H   -1.889798997703    0.126414821783    1.097561219492
 H   -1.889798997703    0.126414821783    2.895827219492
 H   -1.263332997703   -1.299839178217    1.996694219492
 K   -0.006098512395   -1.540865807716   -3.077645932752
