13

 C    1.435380679380    2.225058918190    2.033670038372
 H    1.469900679380    3.325910918190    2.033670038372
 H    1.959963679380    1.855913918190    2.927289038372
 H    1.959963679380    1.855913918190    1.140051038372
 C   -0.007399320620    1.748007918190    2.033670038372
 H   -0.546573320620    2.119160918190    1.138904038372
 H   -0.546573320620    2.119160918190    2.928436038372
 O   -0.006834320620    0.319500918190    2.033670038372
 C   -1.336421320620   -0.190906081810    2.033670038372
 H   -1.889804320620    0.139872918190    1.134537038372
 H   -1.889804320620    0.139872918190    2.932803038372
 H   -1.263338320620   -1.286381081810    2.033670038372
 K   -0.006090307807   -1.561609722966   -3.134639375951
