13

 C    1.435375356462    2.238517014597    2.070645857251
 H    1.469895356462    3.339369014597    2.070645857251
 H    1.959958356462    1.869372014597    2.964264857251
 H    1.959958356462    1.869372014597    1.177026857251
 C   -0.007404643538    1.761466014597    2.070645857251
 H   -0.546578643538    2.132619014597    1.175879857251
 H   -0.546578643538    2.132619014597    2.965411857251
 O   -0.006839643538    0.332959014597    2.070645857251
 C   -1.336426643538   -0.177447985403    2.070645857251
 H   -1.889809643538    0.153331014597    1.171512857251
 H   -1.889809643538    0.153331014597    2.969778857251
 H   -1.263343643538   -1.272922985403    2.070645857251
 K   -0.006082103218   -1.582353638217   -3.191632819150
