13

 C    1.435295512705    2.440388460703    2.625283140444
 H    1.469815512705    3.541240460703    2.625283140444
 H    1.959878512705    2.071243460703    3.518902140444
 H    1.959878512705    2.071243460703    1.731664140444
 C   -0.007484487295    1.963337460703    2.625283140444
 H   -0.546658487295    2.334490460703    1.730517140444
 H   -0.546658487295    2.334490460703    3.520049140444
 O   -0.006919487295    0.534830460703    2.625283140444
 C   -1.336506487295    0.024423460703    2.625283140444
 H   -1.889889487295    0.355202460703    1.726150140444
 H   -1.889889487295    0.355202460703    3.524416140444
 H   -1.263423487295   -1.071051539297    2.625283140444
 K   -0.005959034391   -1.893512366971   -4.046534467136
