13

 C    1.435290189787    2.453846557110    2.662258959323
 H    1.469810189787    3.554698557110    2.662258959323
 H    1.959873189787    2.084701557110    3.555877959323
 H    1.959873189787    2.084701557110    1.768639959323
 C   -0.007489810213    1.976795557110    2.662258959323
 H   -0.546663810213    2.347948557110    1.767492959323
 H   -0.546663810213    2.347948557110    3.557024959323
 O   -0.006924810213    0.548288557110    2.662258959323
 C   -1.336511810213    0.037881557110    2.662258959323
 H   -1.889894810213    0.368660557110    1.763125959323
 H   -1.889894810213    0.368660557110    3.561391959323
 H   -1.263428810213   -1.057593442890    2.662258959323
 K   -0.005950829802   -1.914256282221   -4.103527910335
