13

 C    1.435284866870    2.467304653517    2.699234778203
 H    1.469804866870    3.568156653517    2.699234778203
 H    1.959867866870    2.098159653517    3.592853778203
 H    1.959867866870    2.098159653517    1.805615778203
 C   -0.007495133130    1.990253653517    2.699234778203
 H   -0.546669133130    2.361406653517    1.804468778203
 H   -0.546669133130    2.361406653517    3.594000778203
 O   -0.006930133130    0.561746653517    2.699234778203
 C   -1.336517133130    0.051339653517    2.699234778203
 H   -1.889900133130    0.382118653517    1.800101778203
 H   -1.889900133130    0.382118653517    3.598367778203
 H   -1.263434133130   -1.044135346483    2.699234778203
 K   -0.005942625214   -1.935000197472   -4.160521353535
