13

 C    1.435252929367    2.548053231960    2.921089691479
 H    1.469772929367    3.648905231960    2.921089691479
 H    1.959835929367    2.178908231960    3.814708691479
 H    1.959835929367    2.178908231960    2.027470691479
 C   -0.007527070633    2.071002231960    2.921089691479
 H   -0.546701070633    2.442155231960    2.026323691479
 H   -0.546701070633    2.442155231960    3.815855691479
 O   -0.006962070633    0.642495231960    2.921089691479
 C   -1.336549070633    0.132088231960    2.921089691479
 H   -1.889932070633    0.462867231960    2.021956691479
 H   -1.889932070633    0.462867231960    3.820222691479
 H   -1.263466070633   -0.963386768040    2.921089691479
 K   -0.005893397683   -2.059463688973   -4.502482012729
