13

 C    1.435226314781    2.615343713995    3.105968785877
 H    1.469746314781    3.716195713995    3.105968785877
 H    1.959809314781    2.246198713995    3.999587785877
 H    1.959809314781    2.246198713995    2.212349785877
 C   -0.007553685219    2.138292713995    3.105968785877
 H   -0.546727685219    2.509445713995    2.211202785877
 H   -0.546727685219    2.509445713995    4.000734785877
 O   -0.006988685219    0.709785713995    3.105968785877
 C   -1.336575685219    0.199378713995    3.105968785877
 H   -1.889958685219    0.530157713995    2.206835785877
 H   -1.889958685219    0.530157713995    4.005101785877
 H   -1.263492685219   -0.896096286005    3.105968785877
 K   -0.005852374740   -2.163183265225   -4.787449228725
