13

 C    1.435199700195    2.682634196031    3.290847880274
 H    1.469719700195    3.783486196031    3.290847880274
 H    1.959782700195    2.313489196031    4.184466880274
 H    1.959782700195    2.313489196031    2.397228880274
 C   -0.007580299805    2.205583196031    3.290847880274
 H   -0.546754299805    2.576736196031    2.396081880274
 H   -0.546754299805    2.576736196031    4.185613880274
 O   -0.007015299805    0.777076196031    3.290847880274
 C   -1.336602299805    0.266669196031    3.290847880274
 H   -1.889985299805    0.597448196031    2.391714880274
 H   -1.889985299805    0.597448196031    4.189980880274
 H   -1.263519299805   -0.828805803969    3.290847880274
 K   -0.005811351798   -2.266902841476   -5.072416444720
