13

 C    1.435194377278    2.696092292438    3.327823699154
 H    1.469714377278    3.796944292438    3.327823699154
 H    1.959777377278    2.326947292438    4.221442699154
 H    1.959777377278    2.326947292438    2.434204699154
 C   -0.007585622722    2.219041292438    3.327823699154
 H   -0.546759622722    2.590194292438    2.433057699154
 H   -0.546759622722    2.590194292438    4.222589699154
 O   -0.007020622722    0.790534292438    3.327823699154
 C   -1.336607622722    0.280127292438    3.327823699154
 H   -1.889990622722    0.610906292438    2.428690699154
 H   -1.889990622722    0.610906292438    4.226956699154
 H   -1.263524622722   -0.815347707562    3.327823699154
 K   -0.005803147209   -2.287646756726   -5.129409887919
