13

 C    1.435146471023    2.817215160102    3.660606069069
 H    1.469666471023    3.918067160102    3.660606069069
 H    1.959729471023    2.448070160102    4.554225069069
 H    1.959729471023    2.448070160102    2.766987069069
 C   -0.007633528977    2.340164160102    3.660606069069
 H   -0.546807528977    2.711317160102    2.765840069069
 H   -0.546807528977    2.711317160102    4.555372069069
 O   -0.007068528977    0.911657160102    3.660606069069
 C   -1.336655528977    0.401250160102    3.660606069069
 H   -1.890038528977    0.732029160102    2.761473069069
 H   -1.890038528977    0.732029160102    4.559739069069
 H   -1.263572528977   -0.694224839898    3.660606069069
 K   -0.005729305912   -2.474341993979   -5.642350876711
