17

 N   -0.683129710772   -1.858779380384    0.458751070544
 C    0.527058356072   -1.203573176708    0.462712694512
 N    1.760470770375   -1.802250871170    0.474750979417
 C    2.730893970431   -0.912074729559    0.462878522444
 N    2.527817133018    0.449563403955    0.456043362102
 H    3.331644258269    1.069523943710    0.374055339680
 N    4.056348724668   -1.330749451239    0.384531219209
 H    4.710884930000   -0.798946226839    0.952171995939
 H    4.135153812059   -2.331449595174    0.546114557198
 C    1.268543390701    1.135597107486    0.468997148779
 O    1.240963021596    2.363770192263    0.464909020351
 C    0.195758264725    0.161903718212    0.475198346719
 N   -1.175315037044    0.348234763525    0.475123162003
 C   -1.668838531555   -0.890368250520    0.464793062338
 H   -2.726336444823   -1.144514872352    0.461846417912
 H   -0.808226707303   -2.865362465616    0.450091519513
CS   -1.173973363202    0.357703673572   -0.524831106778
