17

 N   -0.683443696888   -1.860995348375    0.692766035471
 C    0.526744369956   -1.205789144699    0.696727659439
 N    1.760156784259   -1.804466839161    0.708765944344
 C    2.730579984315   -0.914290697550    0.696893487371
 N    2.527503146902    0.447347435964    0.690058327029
 H    3.331330272153    1.067307975719    0.608070304607
 N    4.056034738552   -1.332965419230    0.618546184136
 H    4.710570943884   -0.801162194830    1.186186960866
 H    4.134839825943   -2.333665563165    0.780129522125
 C    1.268229404585    1.133381139495    0.703012113706
 O    1.240649035480    2.361554224272    0.698923985278
 C    0.195444278609    0.159687750221    0.709213311646
 N   -1.175629023160    0.346018795534    0.709138126930
 C   -1.669152517671   -0.892584218511    0.698808027265
 H   -2.726650430939   -1.146730840343    0.695861382839
 H   -0.808540693419   -2.867578433607    0.684106484440
CS   -1.173616512397    0.360222160604   -0.790793276242
