17

 N   -0.683506494111   -1.861438541974    0.739569028456
 C    0.526681572733   -1.206232338298    0.743530652424
 N    1.760093987036   -1.804910032760    0.755568937329
 C    2.730517187092   -0.914733891149    0.743696480356
 N    2.527440349679    0.446904242365    0.736861320014
 H    3.331267474930    1.066864782120    0.654873297592
 N    4.055971941329   -1.333408612829    0.665349177121
 H    4.710508146661   -0.801605388429    1.232989953851
 H    4.134777028720   -2.334108756764    0.826932515110
 C    1.268166607362    1.132937945896    0.749815106691
 O    1.240586238257    2.361111030673    0.745726978263
 C    0.195381481386    0.159244556622    0.756016304631
 N   -1.175691820383    0.345575601935    0.755941119915
 C   -1.669215314894   -0.893027412110    0.745611020250
 H   -2.726713228162   -1.147174033942    0.742664375824
 H   -0.808603490642   -2.868021627206    0.730909477425
CS   -1.173545142236    0.360725858011   -0.843985710135
