17

 N   -0.683569291335   -1.861881735572    0.786372021441
 C    0.526618775509   -1.206675531896    0.790333645409
 N    1.760031189812   -1.805353226358    0.802371930314
 C    2.730454389868   -0.915177084747    0.790499473341
 N    2.527377552455    0.446461048767    0.783664312999
 H    3.331204677706    1.066421588522    0.701676290577
 N    4.055909144105   -1.333851806427    0.712152170106
 H    4.710445349437   -0.802048582027    1.279792946836
 H    4.134714231496   -2.334551950362    0.873735508095
 C    1.268103810138    1.132494752298    0.796618099676
 O    1.240523441033    2.360667837075    0.792529971248
 C    0.195318684162    0.158801363024    0.802819297616
 N   -1.175754617607    0.345132408337    0.802744112900
 C   -1.669278112118   -0.893470605708    0.792414013235
 H   -2.726776025386   -1.147617227540    0.789467368809
 H   -0.808666287866   -2.868464820804    0.777712470410
CS   -1.173473772075    0.361229555417   -0.897178144028
