17

 N   -0.683694885781   -1.862768122768    0.879978007412
 C    0.526493181063   -1.207561919092    0.883939631380
 N    1.759905595366   -1.806239613554    0.895977916285
 C    2.730328795422   -0.916063471943    0.884105459312
 N    2.527251958009    0.445574661571    0.877270298970
 H    3.331079083260    1.065535201326    0.795282276548
 N    4.055783549659   -1.334738193623    0.805758156077
 H    4.710319754991   -0.802934969223    1.373398932807
 H    4.134588637050   -2.335438337558    0.967341494066
 C    1.267978215692    1.131608365102    0.890224085647
 O    1.240397846587    2.359781449879    0.886135957219
 C    0.195193089716    0.157914975828    0.896425283587
 N   -1.175880212053    0.344246021141    0.896350098871
 C   -1.669403706564   -0.894356992904    0.886019999206
 H   -2.726901619832   -1.148503614736    0.883073354780
 H   -0.808791882312   -2.869351208000    0.871318456381
CS   -1.173331031753    0.362236950230   -1.003563011814
