17

 N   -0.683883277451   -1.864097703563    1.020386986367
 C    0.526304789393   -1.208891499887    1.024348610335
 N    1.759717203696   -1.807569194349    1.036386895240
 C    2.730140403752   -0.917393052738    1.024514438267
 N    2.527063566339    0.444245080776    1.017679277925
 H    3.330890691590    1.064205620531    0.935691255503
 N    4.055595157989   -1.336067774418    0.946167135032
 H    4.710131363321   -0.804264550018    1.513807911762
 H    4.134400245380   -2.336767918353    1.107750473021
 C    1.267789824022    1.130278784307    1.030633064602
 O    1.240209454917    2.358451869084    1.026544936174
 C    0.195004698046    0.156585395033    1.036834262542
 N   -1.176068603723    0.342916440346    1.036759077826
 C   -1.669592098234   -0.895686573699    1.026428978161
 H   -2.727090011502   -1.149833195531    1.023482333735
 H   -0.808980273982   -2.870680788795    1.011727435336
CS   -1.173116921270    0.363748042449   -1.163140313492
