17

 N   -0.684197263567   -1.866313671555    1.254401951294
 C    0.525990803277   -1.211107467879    1.258363575262
 N    1.759403217580   -1.809785162341    1.270401860167
 C    2.729826417636   -0.919609020730    1.258529403194
 N    2.526749580223    0.442029112784    1.251694242852
 H    3.330576705474    1.061989652539    1.169706220430
 N    4.055281171873   -1.338283742410    1.180182099959
 H    4.709817377205   -0.806480518010    1.747822876689
 H    4.134086259264   -2.338983886345    1.341765437948
 C    1.267475837906    1.128062816315    1.264648029529
 O    1.239895468801    2.356235901092    1.260559901101
 C    0.194690711930    0.154369427041    1.270849227469
 N   -1.176382589839    0.340700472354    1.270774042753
 C   -1.669906084350   -0.897902541691    1.260443943088
 H   -2.727403997618   -1.152049163523    1.257497298662
 H   -0.809294260098   -2.872896756787    1.245742400263
CS   -1.172760070465    0.366266529481   -1.429102482956
