17

 N   -0.684511249683   -1.868529639546    1.488416916220
 C    0.525676817161   -1.213323435870    1.492378540188
 N    1.759089231464   -1.812001130332    1.504416825093
 C    2.729512431520   -0.921824988721    1.492544368120
 N    2.526435594107    0.439813144793    1.485709207778
 H    3.330262719358    1.059773684548    1.403721185356
 N    4.054967185757   -1.340499710401    1.414197064885
 H    4.709503391089   -0.808696486001    1.981837841615
 H    4.133772273148   -2.341199854336    1.575780402874
 C    1.267161851790    1.125846848324    1.498662994455
 O    1.239581482685    2.354019933101    1.494574866027
 C    0.194376725814    0.152153459050    1.504864192395
 N   -1.176696575955    0.338484504363    1.504789007679
 C   -1.670220070466   -0.900118509682    1.494458908014
 H   -2.727717983734   -1.154265131514    1.491512263588
 H   -0.809608246214   -2.875112724778    1.479757365189
CS   -1.172403219660    0.368785016513   -1.695064652421
