17

 N   -0.684699641353   -1.869859220341    1.628825895176
 C    0.525488425491   -1.214653016665    1.632787519144
 N    1.758900839794   -1.813330711127    1.644825804049
 C    2.729324039850   -0.923154569516    1.632953347076
 N    2.526247202437    0.438483563998    1.626118186734
 H    3.330074327688    1.058444103753    1.544130164312
 N    4.054778794087   -1.341829291196    1.554606043841
 H    4.709314999419   -0.810026066796    2.122246820571
 H    4.133583881478   -2.342529435131    1.716189381830
 C    1.266973460120    1.124517267529    1.639071973411
 O    1.239393091015    2.352690352306    1.634983844983
 C    0.194188334144    0.150823878255    1.645273171351
 N   -1.176884967625    0.337154923568    1.645197986635
 C   -1.670408462136   -0.901448090477    1.634867886970
 H   -2.727906375404   -1.155594712309    1.631921242544
 H   -0.809796637884   -2.876442305573    1.620166344145
CS   -1.172189109177    0.370296108733   -1.854641954099
