17

 N   -0.685202019138   -1.873404769128    2.003249839058
 C    0.524986047706   -1.218198565452    2.007211463026
 N    1.758398462009   -1.816876259914    2.019249747931
 C    2.728821662065   -0.926700118303    2.007377290958
 N    2.525744824652    0.434938015211    2.000542130616
 H    3.329571949903    1.054898554966    1.918554108194
 N    4.054276416302   -1.345374839983    1.929029987723
 H    4.708812621634   -0.813571615583    2.496670764453
 H    4.133081503693   -2.346074983918    2.090613325712
 C    1.266471082335    1.120971718742    2.013495917293
 O    1.238890713230    2.349144803519    2.009407788865
 C    0.193685956359    0.147278329468    2.019697115233
 N   -1.177387345410    0.333609374781    2.019621930517
 C   -1.670910839921   -0.904993639264    2.009291830852
 H   -2.728408753189   -1.159140261096    2.006345186426
 H   -0.810299015669   -2.879987854360    1.994590288027
CS   -1.171618147889    0.374325687984   -2.280181425242
