17

 N   -0.685327613585   -1.874291156324    2.096855825029
 C    0.524860453259   -1.219084952648    2.100817448997
 N    1.758272867562   -1.817762647110    2.112855733902
 C    2.728696067618   -0.927586505499    2.100983276929
 N    2.525619230205    0.434051628015    2.094148116587
 H    3.329446355456    1.054012167770    2.012160094165
 N    4.054150821855   -1.346261227179    2.022635973694
 H    4.708687027187   -0.814458002779    2.590276750424
 H    4.132955909246   -2.346961371114    2.184219311683
 C    1.266345487888    1.120085331546    2.107101903264
 O    1.238765118783    2.348258416323    2.103013774836
 C    0.193560361912    0.146391942272    2.113303101204
 N   -1.177512939857    0.332722987585    2.113227916488
 C   -1.671036434368   -0.905880026460    2.102897816823
 H   -2.728534347636   -1.160026648292    2.099951172397
 H   -0.810424610116   -2.880874241556    2.088196273998
CS   -1.171475407567    0.375333082797   -2.386566293028
