17

 N   -0.685390410808   -1.874734349922    2.143658818014
 C    0.524797656036   -1.219528146246    2.147620441982
 N    1.758210070339   -1.818205840708    2.159658726887
 C    2.728633270395   -0.928029699097    2.147786269914
 N    2.525556432982    0.433608434417    2.140951109572
 H    3.329383558233    1.053568974172    2.058963087150
 N    4.054088024632   -1.346704420777    2.069438966679
 H    4.708624229964   -0.814901196377    2.637079743409
 H    4.132893112023   -2.347404564712    2.231022304668
 C    1.266282690665    1.119642137948    2.153904896249
 O    1.238702321560    2.347815222725    2.149816767821
 C    0.193497564689    0.145948748674    2.160106094189
 N   -1.177575737080    0.332279793987    2.160030909473
 C   -1.671099231591   -0.906323220058    2.149700809808
 H   -2.728597144859   -1.160469841890    2.146754165382
 H   -0.810487407339   -2.881317435154    2.134999266983
CS   -1.171404037406    0.375836780203   -2.439758726921
