17

 N   -0.685453208031   -1.875177543521    2.190461810999
 C    0.524734858813   -1.219971339845    2.194423434967
 N    1.758147273116   -1.818649034307    2.206461719872
 C    2.728570473172   -0.928472892696    2.194589262899
 N    2.525493635759    0.433165240818    2.187754102557
 H    3.329320761010    1.053125780573    2.105766080135
 N    4.054025227409   -1.347147614376    2.116241959664
 H    4.708561432741   -0.815344389976    2.683882736394
 H    4.132830314800   -2.347847758311    2.277825297653
 C    1.266219893442    1.119198944349    2.200707889234
 O    1.238639524337    2.347372029126    2.196619760806
 C    0.193434767466    0.145505555075    2.206909087174
 N   -1.177638534303    0.331836600388    2.206833902458
 C   -1.671162028814   -0.906766413657    2.196503802793
 H   -2.728659942082   -1.160913035489    2.193557158367
 H   -0.810550204562   -2.881760628753    2.181802259968
CS   -1.171332667245    0.376340477610   -2.492951160813
