17

 N   -0.685516005254   -1.875620737119    2.237264803985
 C    0.524672061590   -1.220414533443    2.241226427953
 N    1.758084475893   -1.819092227905    2.253264712858
 C    2.728507675949   -0.928916086294    2.241392255885
 N    2.525430838536    0.432722047220    2.234557095543
 H    3.329257963787    1.052682586975    2.152569073121
 N    4.053962430186   -1.347590807974    2.163044952650
 H    4.708498635518   -0.815787583574    2.730685729380
 H    4.132767517577   -2.348290951909    2.324628290639
 C    1.266157096219    1.118755750751    2.247510882220
 O    1.238576727114    2.346928835528    2.243422753792
 C    0.193371970243    0.145062361477    2.253712080160
 N   -1.177701331526    0.331393406790    2.253636895444
 C   -1.671224826037   -0.907209607255    2.243306795779
 H   -2.728722739305   -1.161356229087    2.240360151353
 H   -0.810613001785   -2.882203822351    2.228605252954
CS   -1.171261297084    0.376844175016   -2.546143594706
