17

 N   -0.685767194147   -1.877393511512    2.424476775926
 C    0.524420872697   -1.222187307836    2.428438399894
 N    1.757833287000   -1.820865002298    2.440476684799
 C    2.728256487056   -0.930688860687    2.428604227826
 N    2.525179649643    0.430949272827    2.421769067484
 H    3.329006774894    1.050909812582    2.339781045062
 N    4.053711241293   -1.349363582367    2.350256924591
 H    4.708247446625   -0.817560357967    2.917897701321
 H    4.132516328684   -2.350063726302    2.511840262580
 C    1.265905907326    1.116982976358    2.434722854161
 O    1.238325538221    2.345156061135    2.430634725733
 C    0.193120781350    0.143289587084    2.440924052101
 N   -1.177952520419    0.329620632397    2.440848867385
 C   -1.671476014930   -0.908982381648    2.430518767720
 H   -2.728973928198   -1.163129003480    2.427572123294
 H   -0.810864190678   -2.883976596744    2.415817224895
CS   -1.170975816440    0.378858964642   -2.758913330278
