17

 N   -0.685829991371   -1.877836705110    2.471279768911
 C    0.524358075473   -1.222630501434    2.475241392879
 N    1.757770489776   -1.821308195896    2.487279677784
 C    2.728193689832   -0.931132054285    2.475407220811
 N    2.525116852419    0.430506079229    2.468572060469
 H    3.328943977670    1.050466618984    2.386584038047
 N    4.053648444069   -1.349806775965    2.397059917576
 H    4.708184649401   -0.818003551565    2.964700694306
 H    4.132453531460   -2.350506919900    2.558643255565
 C    1.265843110102    1.116539782760    2.481525847146
 O    1.238262740997    2.344712867537    2.477437718718
 C    0.193057984126    0.142846393486    2.487727045086
 N   -1.178015317643    0.329177438799    2.487651860370
 C   -1.671538812154   -0.909425575246    2.477321760705
 H   -2.729036725422   -1.163572197078    2.474375116279
 H   -0.810926987902   -2.884419790342    2.462620217880
CS   -1.170904446279    0.379362662048   -2.812105764170
