17

 N   -0.685955585817   -1.878723092307    2.564885754882
 C    0.524232481027   -1.223516888631    2.568847378850
 N    1.757644895330   -1.822194583093    2.580885663755
 C    2.728068095386   -0.932018441482    2.569013206782
 N    2.524991257973    0.429619692032    2.562178046440
 H    3.328818383224    1.049580231787    2.480190024018
 N    4.053522849623   -1.350693163162    2.490665903547
 H    4.708059054955   -0.818889938762    3.058306680277
 H    4.132327937014   -2.351393307097    2.652249241536
 C    1.265717515656    1.115653395563    2.575131833117
 O    1.238137146551    2.343826480340    2.571043704689
 C    0.192932389680    0.141960006289    2.581333031057
 N   -1.178140912089    0.328291051602    2.581257846341
 C   -1.671664406600   -0.910311962443    2.570927746676
 H   -2.729162319868   -1.164458584275    2.567981102250
 H   -0.811052582348   -2.885306177539    2.556226203851
CS   -1.170761705957    0.380370056861   -2.918490631956
