17

 N   -0.686018383040   -1.879166285905    2.611688747867
 C    0.524169683804   -1.223960082229    2.615650371835
 N    1.757582098107   -1.822637776691    2.627688656740
 C    2.728005298163   -0.932461635080    2.615816199767
 N    2.524928460750    0.429176498434    2.608981039425
 H    3.328755586001    1.049137038189    2.526993017003
 N    4.053460052400   -1.351136356760    2.537468896532
 H    4.707996257732   -0.819333132360    3.105109673262
 H    4.132265139791   -2.351836500695    2.699052234521
 C    1.265654718433    1.115210201965    2.621934826102
 O    1.238074349328    2.343383286742    2.617846697674
 C    0.192869592457    0.141516812691    2.628136024042
 N   -1.178203709312    0.327847858004    2.628060839326
 C   -1.671727203823   -0.910755156041    2.617730739661
 H   -2.729225117091   -1.164901777873    2.614784095235
 H   -0.811115379571   -2.885749371137    2.603029196836
CS   -1.170690335796    0.380873754267   -2.971683065849
