17

 N   -0.686143977487   -1.880052673102    2.705294733838
 C    0.524044089357   -1.224846469426    2.709256357806
 N    1.757456503660   -1.823524163888    2.721294642711
 C    2.727879703716   -0.933348022277    2.709422185738
 N    2.524802866303    0.428290111237    2.702587025396
 H    3.328629991554    1.048250650992    2.620599002974
 N    4.053334457953   -1.352022743957    2.631074882503
 H    4.707870663285   -0.820219519557    3.198715659233
 H    4.132139545344   -2.352722887892    2.792658220492
 C    1.265529123986    1.114323814768    2.715540812073
 O    1.237948754881    2.342496899545    2.711452683645
 C    0.192743998010    0.140630425494    2.721742010013
 N   -1.178329303759    0.326961470807    2.721666825297
 C   -1.671852798270   -0.911641543238    2.711336725632
 H   -2.729350711538   -1.165788165070    2.708390081206
 H   -0.811240974018   -2.886635758334    2.696635182807
CS   -1.170547595474    0.381881149080   -3.078067933635
