17

 N   -0.686709152496   -1.884041415487    3.126521670705
 C    0.523478914348   -1.228835211811    3.130483294673
 N    1.756891328651   -1.827512906273    3.142521579578
 C    2.727314528707   -0.937336764662    3.130649122605
 N    2.524237691294    0.424301368852    3.123813962263
 H    3.328064816545    1.044261908607    3.041825939841
 N    4.052769282944   -1.356011486342    3.052301819370
 H    4.707305488276   -0.824208261942    3.619942596100
 H    4.131574370335   -2.356711630277    3.213885157359
 C    1.264963948977    1.110335072383    3.136767748940
 O    1.237383579872    2.338508157160    3.132679620512
 C    0.192178823001    0.136641683109    3.142968946880
 N   -1.178894478768    0.322972728422    3.142893762164
 C   -1.672417973279   -0.915630285623    3.132563662499
 H   -2.729915886547   -1.169776907455    3.129617018073
 H   -0.811806149027   -2.890624500719    3.117862119674
CS   -1.169905264025    0.386414425738   -3.556799838670
