17

 N   -0.686771949719   -1.884484609085    3.173324663690
 C    0.523416117125   -1.229278405409    3.177286287658
 N    1.756828531428   -1.827956099871    3.189324572563
 C    2.727251731484   -0.937779958260    3.177452115590
 N    2.524174894071    0.423858175254    3.170616955248
 H    3.328002019322    1.043818715009    3.088628932826
 N    4.052706485721   -1.356454679940    3.099104812355
 H    4.707242691053   -0.824651455540    3.666745589085
 H    4.131511573112   -2.357154823875    3.260688150344
 C    1.264901151754    1.109891878785    3.183570741925
 O    1.237320782649    2.338064963562    3.179482613497
 C    0.192116025778    0.136198489511    3.189771939865
 N   -1.178957275991    0.322529534824    3.189696755149
 C   -1.672480770502   -0.916073479221    3.179366655484
 H   -2.729978683770   -1.170220101053    3.176420011058
 H   -0.811868946250   -2.891067694317    3.164665112659
CS   -1.169833893864    0.386918123144   -3.609992272563
