17

 N   -0.687211530281   -1.887586964273    3.500945614587
 C    0.522976536563   -1.232380760597    3.504907238555
 N    1.756388950866   -1.831058455059    3.516945523460
 C    2.726812150922   -0.940882313448    3.505073066487
 N    2.523735313509    0.420755820066    3.498237906145
 H    3.327562438760    1.040716359821    3.416249883723
 N    4.052266905159   -1.359557035128    3.426725763252
 H    4.706803110491   -0.827753810728    3.994366539982
 H    4.131071992550   -2.360257179063    3.588309101241
 C    1.264461571192    1.106789523597    3.511191692822
 O    1.236881202087    2.334962608374    3.507103564394
 C    0.191676445216    0.133096134323    3.517392890762
 N   -1.179396856553    0.319427179636    3.517317706046
 C   -1.672920351064   -0.919175834409    3.506987606381
 H   -2.730418264332   -1.173322456241    3.504040961955
 H   -0.812308526812   -2.894170049505    3.492286063556
CS   -1.169334302737    0.390444004989   -3.982339309813
