17

 N   -0.687274327505   -1.888030157871    3.547748607573
 C    0.522913739339   -1.232823954195    3.551710231541
 N    1.756326153642   -1.831501648657    3.563748516446
 C    2.726749353698   -0.941325507046    3.551876059473
 N    2.523672516285    0.420312626468    3.545040899131
 H    3.327499641536    1.040273166223    3.463052876709
 N    4.052204107935   -1.360000228726    3.473528756238
 H    4.706740313267   -0.828197004326    4.041169532968
 H    4.131009195326   -2.360700372661    3.635112094227
 C    1.264398773968    1.106346329999    3.557994685808
 O    1.236818404863    2.334519414776    3.553906557380
 C    0.191613647992    0.132652940725    3.564195883748
 N   -1.179459653777    0.318983986038    3.564120699032
 C   -1.672983148288   -0.919619028007    3.553790599367
 H   -2.730481061556   -1.173765649839    3.550843954941
 H   -0.812371324036   -2.894613243103    3.539089056542
CS   -1.169262932576    0.390947702396   -4.035531743706
