17

 N   -0.687713908067   -1.891132513059    3.875369558469
 C    0.522474158777   -1.235926309383    3.879331182437
 N    1.755886573080   -1.834604003845    3.891369467342
 C    2.726309773136   -0.944427862234    3.879497010369
 N    2.523232935723    0.417210271280    3.872661850027
 H    3.327060060974    1.037170811035    3.790673827605
 N    4.051764527373   -1.363102583914    3.801149707134
 H    4.706300732705   -0.831299359514    4.368790483864
 H    4.130569614764   -2.363802727849    3.962733045123
 C    1.263959193406    1.103243974811    3.885615636704
 O    1.236378824301    2.331417059588    3.881527508276
 C    0.191174067430    0.129550585537    3.891816834644
 N   -1.179899234339    0.315881630850    3.891741649928
 C   -1.673422728850   -0.922721383195    3.881411550263
 H   -2.730920642118   -1.176868005027    3.878464905837
 H   -0.812810904598   -2.897715598291    3.866710007438
CS   -1.168763341449    0.394473584241   -4.407878780956
