17

 N   -0.687776705290   -1.891575706658    3.922172551455
 C    0.522411361554   -1.236369502982    3.926134175423
 N    1.755823775857   -1.835047197444    3.938172460328
 C    2.726246975913   -0.944871055833    3.926300003355
 N    2.523170138500    0.416767077681    3.919464843013
 H    3.326997263751    1.036727617436    3.837476820591
 N    4.051701730150   -1.363545777513    3.847952700120
 H    4.706237935482   -0.831742553113    4.415593476850
 H    4.130506817541   -2.364245921448    4.009536038109
 C    1.263896396183    1.102800781212    3.932418629690
 O    1.236316027078    2.330973865989    3.928330501262
 C    0.191111270207    0.129107391938    3.938619827630
 N   -1.179962031562    0.315438437251    3.938544642914
 C   -1.673485526073   -0.923164576794    3.928214543249
 H   -2.730983439341   -1.177311198626    3.925267898823
 H   -0.812873701821   -2.898158791890    3.913513000424
CS   -1.168691971288    0.394977281647   -4.461071214849
