17

 N   -0.687965096960   -1.892905287453    4.062581530411
 C    0.522222969884   -1.237699083777    4.066543154379
 N    1.755635384187   -1.836376778239    4.078581439284
 C    2.726058584243   -0.946200636628    4.066708982311
 N    2.522981746830    0.415437496886    4.059873821969
 H    3.326808872081    1.035398036641    3.977885799547
 N    4.051513338480   -1.364875358308    3.988361679076
 H    4.706049543812   -0.833072133908    4.556002455806
 H    4.130318425871   -2.365575502243    4.149945017065
 C    1.263708004513    1.101471200417    4.072827608646
 O    1.236127635408    2.329644285194    4.068739480218
 C    0.190922878537    0.127777811143    4.079028806586
 N   -1.180150423232    0.314108856456    4.078953621870
 C   -1.673673917743   -0.924494157589    4.068623522205
 H   -2.731171831011   -1.178640779421    4.065676877779
 H   -0.813062093491   -2.899488372685    4.053921979380
CS   -1.168477860805    0.396488373866   -4.620648516527
