17

 N   -0.688090691407   -1.893791674649    4.156187516381
 C    0.522097375437   -1.238585470973    4.160149140349
 N    1.755509789740   -1.837263165435    4.172187425254
 C    2.725932989796   -0.947087023824    4.160314968281
 N    2.522856152383    0.414551109690    4.153479807939
 H    3.326683277634    1.034511649445    4.071491785517
 N    4.051387744033   -1.365761745504    4.081967665046
 H    4.705923949365   -0.833958521104    4.649608441776
 H    4.130192831424   -2.366461889439    4.243551003035
 C    1.263582410066    1.100584813221    4.166433594616
 O    1.236002040961    2.328757897998    4.162345466188
 C    0.190797284090    0.126891423947    4.172634792556
 N   -1.180276017679    0.313222469260    4.172559607840
 C   -1.673799512190   -0.925380544785    4.162229508175
 H   -2.731297425458   -1.179527166617    4.159282863749
 H   -0.813187687938   -2.900374759881    4.147527965350
CS   -1.168335120483    0.397495768679   -4.727033384313
