17

 N   -0.688404677523   -1.896007642641    4.390202481308
 C    0.521783389321   -1.240801438965    4.394164105276
 N    1.755195803624   -1.839479133427    4.406202390181
 C    2.725619003680   -0.949302991816    4.394329933208
 N    2.522542166267    0.412335141698    4.387494772866
 H    3.326369291518    1.032295681453    4.305506750444
 N    4.051073757917   -1.367977713496    4.315982629973
 H    4.705609963249   -0.836174489096    4.883623406703
 H    4.129878845308   -2.368677857431    4.477565967962
 C    1.263268423950    1.098368845229    4.400448559543
 O    1.235688054845    2.326541930006    4.396360431115
 C    0.190483297974    0.124675455955    4.406649757483
 N   -1.180590003795    0.311006501268    4.406574572767
 C   -1.674113498306   -0.927596512777    4.396244473102
 H   -2.731611411574   -1.181743134609    4.393297828676
 H   -0.813501674054   -2.902590727873    4.381542930277
CS   -1.167978269678    0.400014255711   -4.992995553777
