17

 N   -0.688467474746   -1.896450836239    4.437005474293
 C    0.521720592098   -1.241244632563    4.440967098261
 N    1.755133006401   -1.839922327025    4.453005383166
 C    2.725556206457   -0.949746185414    4.441132926193
 N    2.522479369044    0.411891948100    4.434297765851
 H    3.326306494295    1.031852487855    4.352309743429
 N    4.051010960694   -1.368420907094    4.362785622958
 H    4.705547166026   -0.836617682694    4.930426399688
 H    4.129816048085   -2.369121051029    4.524368960947
 C    1.263205626727    1.097925651631    4.447251552528
 O    1.235625257622    2.326098736408    4.443163424100
 C    0.190420500751    0.124232262357    4.453452750468
 N   -1.180652801018    0.310563307670    4.453377565752
 C   -1.674176295529   -0.928039706375    4.443047466087
 H   -2.731674208797   -1.182186328207    4.440100821661
 H   -0.813564471277   -2.903033921471    4.428345923262
CS   -1.167906899517    0.400517953118   -5.046187987670
