17

 N   -0.688593069192   -1.897337223436    4.530611460263
 C    0.521594997652   -1.242131019760    4.534573084231
 N    1.755007411955   -1.840808714222    4.546611369136
 C    2.725430612011   -0.950632572611    4.534738912163
 N    2.522353774598    0.411005560903    4.527903751821
 H    3.326180899849    1.030966100658    4.445915729399
 N    4.050885366248   -1.369307294291    4.456391608928
 H    4.705421571580   -0.837504069891    5.024032385658
 H    4.129690453639   -2.370007438226    4.617974946917
 C    1.263080032281    1.097039264434    4.540857538498
 O    1.235499663176    2.325212349211    4.536769410070
 C    0.190294906305    0.123345875160    4.547058736438
 N   -1.180778395464    0.309676920473    4.546983551722
 C   -1.674301889975   -0.928926093572    4.536653452057
 H   -2.731799803243   -1.183072715404    4.533706807631
 H   -0.813690065723   -2.903920308668    4.521951909232
CS   -1.167764159195    0.401525347930   -5.152572855456
