17

 N   -0.688655866415   -1.897780417034    4.577414453249
 C    0.521532200429   -1.242574213358    4.581376077217
 N    1.754944614732   -1.841251907820    4.593414362122
 C    2.725367814788   -0.951075766209    4.581541905149
 N    2.522290977375    0.410562367305    4.574706744807
 H    3.326118102626    1.030522907060    4.492718722385
 N    4.050822569025   -1.369750487889    4.503194601914
 H    4.705358774357   -0.837947263489    5.070835378644
 H    4.129627656416   -2.370450631824    4.664777939903
 C    1.263017235058    1.096596070836    4.587660531484
 O    1.235436865953    2.324769155613    4.583572403056
 C    0.190232109082    0.122902681562    4.593861729424
 N   -1.180841192687    0.309233726875    4.593786544708
 C   -1.674364687198   -0.929369287170    4.583456445043
 H   -2.731862600466   -1.183515909002    4.580509800617
 H   -0.813752862946   -2.904363502266    4.568754902218
CS   -1.167692789034    0.402029045337   -5.205765289348
