10

 H    1.988577462657    1.232895798417   -0.901476000000
 H    0.786363462657    2.208142798417    0.000000000000
 H    1.988577462657    1.232895798417    0.901476000000
 C    1.357728462657    1.268423798417    0.000000000000
 S    0.159853462657   -0.104114201583    0.000000000000
 C    1.357728462657   -1.476652201583    0.000000000000
 H    1.988577462657   -1.441124201583    0.901476000000
 H    0.786363462657   -2.416371201583    0.000000000000
 H    1.988577462657   -1.441124201583   -0.901476000000
 K   -1.213896720827    0.165719883321    0.000000000000
