10

 H    2.064299604273    1.218022341048   -0.901476000000
 H    0.862085604273    2.193269341048    0.000000000000
 H    2.064299604273    1.218022341048    0.901476000000
 C    1.433450604273    1.253550341048    0.000000000000
 S    0.235575604273   -0.118987658952    0.000000000000
 C    1.433450604273   -1.491525658952    0.000000000000
 H    2.064299604273   -1.455997658952    0.901476000000
 H    0.862085604273   -2.431244658952    0.000000000000
 H    2.064299604273   -1.455997658952   -0.901476000000
 K   -1.334424605424    0.189394152367    0.000000000000
