10

 H    2.102160675080    1.210585612363   -0.901476000000
 H    0.899946675080    2.185832612363    0.000000000000
 H    2.102160675080    1.210585612363    0.901476000000
 C    1.471311675080    1.246113612363    0.000000000000
 S    0.273436675080   -0.126424387637    0.000000000000
 C    1.471311675080   -1.498962387637    0.000000000000
 H    2.102160675080   -1.463434387637    0.901476000000
 H    0.899946675080   -2.438681387637    0.000000000000
 H    2.102160675080   -1.463434387637   -0.901476000000
 K   -1.394688547722    0.201231286890    0.000000000000
