10

 H    2.140021745888    1.203148883678   -0.901476000000
 H    0.937807745888    2.178395883678    0.000000000000
 H    2.140021745888    1.203148883678    0.901476000000
 C    1.509172745888    1.238676883678    0.000000000000
 S    0.311297745888   -0.133861116322    0.000000000000
 C    1.509172745888   -1.506399116322    0.000000000000
 H    2.140021745888   -1.470871116322    0.901476000000
 H    0.937807745888   -2.446118116322    0.000000000000
 H    2.140021745888   -1.470871116322   -0.901476000000
 K   -1.454952490021    0.213068421413    0.000000000000
