10

 H    2.177882816696    1.195712154994   -0.901476000000
 H    0.975668816696    2.170959154994    0.000000000000
 H    2.177882816696    1.195712154994    0.901476000000
 C    1.547033816696    1.231240154994    0.000000000000
 S    0.349158816696   -0.141297845006    0.000000000000
 C    1.547033816696   -1.513835845006    0.000000000000
 H    2.177882816696   -1.478307845006    0.901476000000
 H    0.975668816696   -2.453554845006    0.000000000000
 H    2.177882816696   -1.478307845006   -0.901476000000
 K   -1.515216432319    0.224905555936    0.000000000000
