10

 H    2.253604958311    1.180838697625   -0.901476000000
 H    1.051390958311    2.156085697625    0.000000000000
 H    2.253604958311    1.180838697625    0.901476000000
 C    1.622755958311    1.216366697625    0.000000000000
 S    0.424880958311   -0.156171302375    0.000000000000
 C    1.622755958311   -1.528709302375    0.000000000000
 H    2.253604958311   -1.493181302375    0.901476000000
 H    1.051390958311   -2.468428302375    0.000000000000
 H    2.253604958311   -1.493181302375   -0.901476000000
 K   -1.635744316916    0.248579824982    0.000000000000
