10

 H    2.291466029119    1.173401968940   -0.901476000000
 H    1.089252029119    2.148648968940    0.000000000000
 H    2.291466029119    1.173401968940    0.901476000000
 C    1.660617029119    1.208929968940    0.000000000000
 S    0.462742029119   -0.163608031060    0.000000000000
 C    1.660617029119   -1.536146031060    0.000000000000
 H    2.291466029119   -1.500618031060    0.901476000000
 H    1.089252029119   -2.475865031060    0.000000000000
 H    2.291466029119   -1.500618031060   -0.901476000000
 K   -1.696008259214    0.260416959505    0.000000000000
