10

 H    2.329327099926    1.165965240256   -0.901476000000
 H    1.127113099926    2.141212240256    0.000000000000
 H    2.329327099926    1.165965240256    0.901476000000
 C    1.698478099926    1.201493240256    0.000000000000
 S    0.500603099926   -0.171044759744    0.000000000000
 C    1.698478099926   -1.543582759744    0.000000000000
 H    2.329327099926   -1.508054759744    0.901476000000
 H    1.127113099926   -2.483301759744    0.000000000000
 H    2.329327099926   -1.508054759744   -0.901476000000
 K   -1.756272201512    0.272254094028    0.000000000000
