10

 H    2.367188170734    1.158528511571   -0.901476000000
 H    1.164974170734    2.133775511571    0.000000000000
 H    2.367188170734    1.158528511571    0.901476000000
 C    1.736339170734    1.194056511571    0.000000000000
 S    0.538464170734   -0.178481488429    0.000000000000
 C    1.736339170734   -1.551019488429    0.000000000000
 H    2.367188170734   -1.515491488429    0.901476000000
 H    1.164974170734   -2.490738488429    0.000000000000
 H    2.367188170734   -1.515491488429   -0.901476000000
 K   -1.816536143811    0.284091228551    0.000000000000
