10

 H    2.405049241542    1.151091782887   -0.901476000000
 H    1.202835241542    2.126338782887    0.000000000000
 H    2.405049241542    1.151091782887    0.901476000000
 C    1.774200241542    1.186619782887    0.000000000000
 S    0.576325241542   -0.185918217113    0.000000000000
 C    1.774200241542   -1.558456217113    0.000000000000
 H    2.405049241542   -1.522928217113    0.901476000000
 H    1.202835241542   -2.498175217113    0.000000000000
 H    2.405049241542   -1.522928217113   -0.901476000000
 K   -1.876800086109    0.295928363074    0.000000000000
