10

 H    2.556493524772    1.121344868149   -0.901476000000
 H    1.354279524772    2.096591868149    0.000000000000
 H    2.556493524772    1.121344868149    0.901476000000
 C    1.925644524772    1.156872868149    0.000000000000
 S    0.727769524772   -0.215665131851    0.000000000000
 C    1.925644524772   -1.588203131851    0.000000000000
 H    2.556493524772   -1.552675131851    0.901476000000
 H    1.354279524772   -2.527922131851    0.000000000000
 H    2.556493524772   -1.552675131851   -0.901476000000
 K   -2.117855855303    0.343276901166    0.000000000000
