10

 H    2.594354595580    1.113908139464   -0.901476000000
 H    1.392140595580    2.089155139464    0.000000000000
 H    2.594354595580    1.113908139464    0.901476000000
 C    1.963505595580    1.149436139464    0.000000000000
 S    0.765630595580   -0.223101860536    0.000000000000
 C    1.963505595580   -1.595639860536    0.000000000000
 H    2.594354595580   -1.560111860536    0.901476000000
 H    1.392140595580   -2.535358860536    0.000000000000
 H    2.594354595580   -1.560111860536   -0.901476000000
 K   -2.178119797601    0.355114035689    0.000000000000
