10

 H    2.670076737195    1.099034682095   -0.901476000000
 H    1.467862737195    2.074281682095    0.000000000000
 H    2.670076737195    1.099034682095    0.901476000000
 C    2.039227737195    1.134562682095    0.000000000000
 S    0.841352737195   -0.237975317905    0.000000000000
 C    2.039227737195   -1.610513317905    0.000000000000
 H    2.670076737195   -1.574985317905    0.901476000000
 H    1.467862737195   -2.550232317905    0.000000000000
 H    2.670076737195   -1.574985317905   -0.901476000000
 K   -2.298647682198    0.378788304734    0.000000000000
