10

 H    2.707937808003    1.091597953410   -0.901476000000
 H    1.505723808003    2.066844953410    0.000000000000
 H    2.707937808003    1.091597953410    0.901476000000
 C    2.077088808003    1.127125953410    0.000000000000
 S    0.879213808003   -0.245412046590    0.000000000000
 C    2.077088808003   -1.617950046590    0.000000000000
 H    2.707937808003   -1.582422046590    0.901476000000
 H    1.505723808003   -2.557669046590    0.000000000000
 H    2.707937808003   -1.582422046590   -0.901476000000
 K   -2.358911624496    0.390625439257    0.000000000000
