10

 H    2.745798878811    1.084161224726   -0.901476000000
 H    1.543584878811    2.059408224726    0.000000000000
 H    2.745798878811    1.084161224726    0.901476000000
 C    2.114949878811    1.119689224726    0.000000000000
 S    0.917074878811   -0.252848775274    0.000000000000
 C    2.114949878811   -1.625386775274    0.000000000000
 H    2.745798878811   -1.589858775274    0.901476000000
 H    1.543584878811   -2.565105775274    0.000000000000
 H    2.745798878811   -1.589858775274   -0.901476000000
 K   -2.419175566795    0.402462573780    0.000000000000
