10

 H    3.200131728503    0.994920480512   -0.901476000000
 H    1.997917728503    1.970167480512    0.000000000000
 H    3.200131728503    0.994920480512    0.901476000000
 C    2.569282728503    1.030448480512    0.000000000000
 S    1.371407728503   -0.342089519488    0.000000000000
 C    2.569282728503   -1.714627519488    0.000000000000
 H    3.200131728503   -1.679099519488    0.901476000000
 H    1.997917728503   -2.654346519488    0.000000000000
 H    3.200131728503   -1.679099519488   -0.901476000000
 K   -3.142342874375    0.544508188056    0.000000000000
