10

 H    3.427298153348    0.950300108404   -0.901476000000
 H    2.225084153348    1.925547108404    0.000000000000
 H    3.427298153348    0.950300108404    0.901476000000
 C    2.796449153348    0.985828108404    0.000000000000
 S    1.598574153348   -0.386709891596    0.000000000000
 C    2.796449153348   -1.759247891596    0.000000000000
 H    3.427298153348   -1.723719891596    0.901476000000
 H    2.225084153348   -2.698966891596    0.000000000000
 H    3.427298153348   -1.723719891596   -0.901476000000
 K   -3.503926528165    0.615530995193    0.000000000000
