10

 H    3.465159224156    0.942863379720   -0.901476000000
 H    2.262945224156    1.918110379720    0.000000000000
 H    3.465159224156    0.942863379720    0.901476000000
 C    2.834310224156    0.978391379720    0.000000000000
 S    1.636435224156   -0.394146620280    0.000000000000
 C    2.834310224156   -1.766684620280    0.000000000000
 H    3.465159224156   -1.731156620280    0.901476000000
 H    2.262945224156   -2.706403620280    0.000000000000
 H    3.465159224156   -1.731156620280   -0.901476000000
 K   -3.564190470464    0.627368129716    0.000000000000
