10

 H    3.540881365771    0.927989922351   -0.901476000000
 H    2.338667365771    1.903236922351    0.000000000000
 H    3.540881365771    0.927989922351    0.901476000000
 C    2.910032365771    0.963517922351    0.000000000000
 S    1.712157365771   -0.409020077649    0.000000000000
 C    2.910032365771   -1.781558077649    0.000000000000
 H    3.540881365771   -1.746030077649    0.901476000000
 H    2.338667365771   -2.721277077649    0.000000000000
 H    3.540881365771   -1.746030077649   -0.901476000000
 K   -3.684718355060    0.651042398762    0.000000000000
