10

 H    3.578742436579    0.920553193666   -0.901476000000
 H    2.376528436579    1.895800193666    0.000000000000
 H    3.578742436579    0.920553193666    0.901476000000
 C    2.947893436579    0.956081193666    0.000000000000
 S    1.750018436579   -0.416456806334    0.000000000000
 C    2.947893436579   -1.788994806334    0.000000000000
 H    3.578742436579   -1.753466806334    0.901476000000
 H    2.376528436579   -2.728713806334    0.000000000000
 H    3.578742436579   -1.753466806334   -0.901476000000
 K   -3.744982297359    0.662879533285    0.000000000000
