10

 H    3.654464578194    0.905679736297   -0.901476000000
 H    2.452250578194    1.880926736297    0.000000000000
 H    3.654464578194    0.905679736297    0.901476000000
 C    3.023615578194    0.941207736297    0.000000000000
 S    1.825740578194   -0.431330263703    0.000000000000
 C    3.023615578194   -1.803868263703    0.000000000000
 H    3.654464578194   -1.768340263703    0.901476000000
 H    2.452250578194   -2.743587263703    0.000000000000
 H    3.654464578194   -1.768340263703   -0.901476000000
 K   -3.865510181956    0.686553802331    0.000000000000
