10

 H    3.730186719810    0.890806278928   -0.901476000000
 H    2.527972719810    1.866053278928    0.000000000000
 H    3.730186719810    0.890806278928    0.901476000000
 C    3.099337719810    0.926334278928    0.000000000000
 S    1.901462719810   -0.446203721072    0.000000000000
 C    3.099337719810   -1.818741721072    0.000000000000
 H    3.730186719810   -1.783213721072    0.901476000000
 H    2.527972719810   -2.758460721072    0.000000000000
 H    3.730186719810   -1.783213721072   -0.901476000000
 K   -3.986038066552    0.710228071377    0.000000000000
