10

 H    3.768047790617    0.883369550244   -0.901476000000
 H    2.565833790617    1.858616550244    0.000000000000
 H    3.768047790617    0.883369550244    0.901476000000
 C    3.137198790617    0.918897550244    0.000000000000
 S    1.939323790617   -0.453640449756    0.000000000000
 C    3.137198790617   -1.826178449756    0.000000000000
 H    3.768047790617   -1.790650449756    0.901476000000
 H    2.565833790617   -2.765897449756    0.000000000000
 H    3.768047790617   -1.790650449756   -0.901476000000
 K   -4.046302008851    0.722065205900    0.000000000000
