10

 H    3.881631003040    0.861059364190   -0.901476000000
 H    2.679417003040    1.836306364190    0.000000000000
 H    3.881631003040    0.861059364190    0.901476000000
 C    3.250782003040    0.896587364190    0.000000000000
 S    2.052907003040   -0.475950635810    0.000000000000
 C    3.250782003040   -1.848488635810    0.000000000000
 H    3.881631003040   -1.812960635810    0.901476000000
 H    2.679417003040   -2.788207635810    0.000000000000
 H    3.881631003040   -1.812960635810   -0.901476000000
 K   -4.227093835746    0.757576609469    0.000000000000
