10

 H    3.957353144656    0.846185906821   -0.901476000000
 H    2.755139144656    1.821432906821    0.000000000000
 H    3.957353144656    0.846185906821    0.901476000000
 C    3.326504144656    0.881713906821    0.000000000000
 S    2.128629144656   -0.490824093179    0.000000000000
 C    3.326504144656   -1.863362093179    0.000000000000
 H    3.957353144656   -1.827834093179    0.901476000000
 H    2.755139144656   -2.803081093179    0.000000000000
 H    3.957353144656   -1.827834093179   -0.901476000000
 K   -4.347621720343    0.781250878515    0.000000000000
