10

 H    4.146658498694    0.809002263398   -0.901476000000
 H    2.944444498694    1.784249263398    0.000000000000
 H    4.146658498694    0.809002263398    0.901476000000
 C    3.515809498694    0.844530263398    0.000000000000
 S    2.317934498694   -0.528007736602    0.000000000000
 C    3.515809498694   -1.900545736602    0.000000000000
 H    4.146658498694   -1.865017736602    0.901476000000
 H    2.944444498694   -2.840264736602    0.000000000000
 H    4.146658498694   -1.865017736602   -0.901476000000
 K   -4.648941431834    0.840436551130    0.000000000000
