10

 H    4.222380640309    0.794128806029   -0.901476000000
 H    3.020166640309    1.769375806029    0.000000000000
 H    4.222380640309    0.794128806029    0.901476000000
 C    3.591531640309    0.829656806029    0.000000000000
 S    2.393656640309   -0.542881193971    0.000000000000
 C    3.591531640309   -1.915419193971    0.000000000000
 H    4.222380640309   -1.879891193971    0.901476000000
 H    3.020166640309   -2.855138193971    0.000000000000
 H    4.222380640309   -1.879891193971   -0.901476000000
 K   -4.769469316431    0.864110820175    0.000000000000
