10

 H    4.373824923540    0.764381891291   -0.901476000000
 H    3.171610923540    1.739628891291    0.000000000000
 H    4.373824923540    0.764381891291    0.901476000000
 C    3.742975923540    0.799909891291    0.000000000000
 S    2.545100923540   -0.572628108709    0.000000000000
 C    3.742975923540   -1.945166108709    0.000000000000
 H    4.373824923540   -1.909638108709    0.901476000000
 H    3.171610923540   -2.884885108709    0.000000000000
 H    4.373824923540   -1.909638108709   -0.901476000000
 K   -5.010525085625    0.911459358267    0.000000000000
