10

 H    4.411685994348    0.756945162607   -0.901476000000
 H    3.209471994348    1.732192162607    0.000000000000
 H    4.411685994348    0.756945162607    0.901476000000
 C    3.780836994348    0.792473162607    0.000000000000
 S    2.582961994348   -0.580064837393    0.000000000000
 C    3.780836994348   -1.952602837393    0.000000000000
 H    4.411685994348   -1.917074837393    0.901476000000
 H    3.209471994348   -2.892321837393    0.000000000000
 H    4.411685994348   -1.917074837393   -0.901476000000
 K   -5.070789027923    0.923296492790    0.000000000000
