10

 H    4.487408135963    0.742071705238   -0.901476000000
 H    3.285194135963    1.717318705238    0.000000000000
 H    4.487408135963    0.742071705238    0.901476000000
 C    3.856559135963    0.777599705238    0.000000000000
 S    2.658684135963   -0.594938294762    0.000000000000
 C    3.856559135963   -1.967476294762    0.000000000000
 H    4.487408135963   -1.931948294762    0.901476000000
 H    3.285194135963   -2.907195294762    0.000000000000
 H    4.487408135963   -1.931948294762   -0.901476000000
 K   -5.191316912520    0.946970761836    0.000000000000
