10

 H    4.525269206771    0.734634976553   -0.901476000000
 H    3.323055206771    1.709881976553    0.000000000000
 H    4.525269206771    0.734634976553    0.901476000000
 C    3.894420206771    0.770162976553    0.000000000000
 S    2.696545206771   -0.602375023447    0.000000000000
 C    3.894420206771   -1.974913023447    0.000000000000
 H    4.525269206771   -1.939385023447    0.901476000000
 H    3.323055206771   -2.914632023447    0.000000000000
 H    4.525269206771   -1.939385023447   -0.901476000000
 K   -5.251580854818    0.958807896359    0.000000000000
