10

 H    4.563130277578    0.727198247868   -0.901476000000
 H    3.360916277578    1.702445247868    0.000000000000
 H    4.563130277578    0.727198247868    0.901476000000
 C    3.932281277578    0.762726247868    0.000000000000
 S    2.734406277578   -0.609811752132    0.000000000000
 C    3.932281277578   -1.982349752132    0.000000000000
 H    4.563130277578   -1.946821752132    0.901476000000
 H    3.360916277578   -2.922068752132    0.000000000000
 H    4.563130277578   -1.946821752132   -0.901476000000
 K   -5.311844797117    0.970645030882    0.000000000000
