10

 H    4.676713490001    0.704888061815   -0.901476000000
 H    3.474499490001    1.680135061815    0.000000000000
 H    4.676713490001    0.704888061815    0.901476000000
 C    4.045864490001    0.740416061815    0.000000000000
 S    2.847989490001   -0.632121938185    0.000000000000
 C    4.045864490001   -2.004659938185    0.000000000000
 H    4.676713490001   -1.969131938185    0.901476000000
 H    3.474499490001   -2.944378938185    0.000000000000
 H    4.676713490001   -1.969131938185   -0.901476000000
 K   -5.492636624012    1.006156434451    0.000000000000
