10

 H    4.752435631617    0.690014604446   -0.901476000000
 H    3.550221631617    1.665261604446    0.000000000000
 H    4.752435631617    0.690014604446    0.901476000000
 C    4.121586631617    0.725542604446    0.000000000000
 S    2.923711631617   -0.646995395554    0.000000000000
 C    4.121586631617   -2.019533395554    0.000000000000
 H    4.752435631617   -1.984005395554    0.901476000000
 H    3.550221631617   -2.959252395554    0.000000000000
 H    4.752435631617   -1.984005395554   -0.901476000000
 K   -5.613164508608    1.029830703497    0.000000000000
