10

 H    4.979602056462    0.645394232339   -0.901476000000
 H    3.777388056462    1.620641232339    0.000000000000
 H    4.979602056462    0.645394232339    0.901476000000
 C    4.348753056462    0.680922232339    0.000000000000
 S    3.150878056462   -0.691615767661    0.000000000000
 C    4.348753056462   -2.064153767661    0.000000000000
 H    4.979602056462   -2.028625767661    0.901476000000
 H    3.777388056462   -3.003872767661    0.000000000000
 H    4.979602056462   -2.028625767661   -0.901476000000
 K   -5.974748162399    1.100853510635    0.000000000000
