10

 H    5.055324198078    0.630520774970   -0.901476000000
 H    3.853110198078    1.605767774970    0.000000000000
 H    5.055324198078    0.630520774970    0.901476000000
 C    4.424475198078    0.666048774970    0.000000000000
 S    3.226600198078   -0.706489225030    0.000000000000
 C    4.424475198078   -2.079027225030    0.000000000000
 H    5.055324198078   -2.043499225030    0.901476000000
 H    3.853110198078   -3.018746225030    0.000000000000
 H    5.055324198078   -2.043499225030   -0.901476000000
 K   -6.095276046995    1.124527779680    0.000000000000
