10

 H    5.093185268885    0.623084046285   -0.901476000000
 H    3.890971268885    1.598331046285    0.000000000000
 H    5.093185268885    0.623084046285    0.901476000000
 C    4.462336268885    0.658612046285    0.000000000000
 S    3.264461268885   -0.713925953715    0.000000000000
 C    4.462336268885   -2.086463953715    0.000000000000
 H    5.093185268885   -2.050935953715    0.901476000000
 H    3.890971268885   -3.026182953715    0.000000000000
 H    5.093185268885   -2.050935953715   -0.901476000000
 K   -6.155539989294    1.136364914203    0.000000000000
