10

 H    5.168907410501    0.608210588916   -0.901476000000
 H    3.966693410501    1.583457588916    0.000000000000
 H    5.168907410501    0.608210588916    0.901476000000
 C    4.538058410501    0.643738588916    0.000000000000
 S    3.340183410501   -0.728799411084    0.000000000000
 C    4.538058410501   -2.101337411084    0.000000000000
 H    5.168907410501   -2.065809411084    0.901476000000
 H    3.966693410501   -3.041056411084    0.000000000000
 H    5.168907410501   -2.065809411084   -0.901476000000
 K   -6.276067873891    1.160039183249    0.000000000000
