16

 N   -1.844879111593    0.117470664626    0.149756887112
 C   -0.612753379326   -0.512819615382    0.150711847420
 N   -0.342612443200   -1.833705090350    0.147247658473
 C    0.985516725263   -2.051898983100    0.162815087136
 H    1.299325008233   -3.098577715590    0.166194657827
 N    1.997866168304   -1.143918025959    0.176786357411
 C    1.685649424397    0.166903057290    0.172139953511
 N    2.693276379199    1.091401694595    0.130318116580
 H    3.624727916586    0.760871585843    0.352776050713
 H    2.460538873172    2.051372449634    0.355128362020
 C    0.320148583523    0.543596911157    0.163368865796
 N   -0.303380727668    1.782562611787    0.173247074814
 C   -1.603306214825    1.474483223426    0.164792221656
 H   -2.413359743612    2.201064024528    0.168840359519
 H   -2.748668788763   -0.342786459208    0.142153831179
NA   -1.842278771690    0.120887340147   -0.950234733111
