16

 N   -1.845085433128    0.117199571706    0.237034692064
 C   -0.612959700861   -0.513090708302    0.237989652372
 N   -0.342818764735   -1.833976183270    0.234525463425
 C    0.985310403728   -2.052170076020    0.250092892088
 H    1.299118686698   -3.098848808510    0.253472462779
 N    1.997659846769   -1.144189118879    0.264064162363
 C    1.685443102862    0.166631964370    0.259417758463
 N    2.693070057664    1.091130601675    0.217595921532
 H    3.624521595051    0.760600492923    0.440053855665
 H    2.460332551637    2.051101356714    0.442406166972
 C    0.319942261988    0.543325818237    0.250646670748
 N   -0.303587049203    1.782291518867    0.260524879766
 C   -1.603512536360    1.474212130506    0.252070026608
 H   -2.413566065147    2.200792931608    0.256118164471
 H   -2.748875110298   -0.343057552128    0.229431636131
NA   -1.841066726005    0.122479888420   -1.462952357371
