16

 N   -1.845119820050    0.117154389553    0.251580992890
 C   -0.612994087783   -0.513135890455    0.252535953198
 N   -0.342853151657   -1.834021365423    0.249071764251
 C    0.985276016806   -2.052215258173    0.264639192914
 H    1.299084299776   -3.098893990663    0.268018763605
 N    1.997625459847   -1.144234301032    0.278610463189
 C    1.685408715940    0.166586782217    0.273964059289
 N    2.693035670742    1.091085419522    0.232142222358
 H    3.624487208129    0.760555310770    0.454600156491
 H    2.460298164715    2.051056174561    0.456952467798
 C    0.319907875066    0.543280636084    0.265192971574
 N   -0.303621436125    1.782246336714    0.275071180592
 C   -1.603546923282    1.474166948353    0.266616327434
 H   -2.413600452069    2.200747749455    0.270664465297
 H   -2.748909497220   -0.343102734281    0.243977936957
NA   -1.840864718390    0.122745313133   -1.548405294748
