16

 N   -1.845154206972    0.117109207400    0.266127293715
 C   -0.613028474705   -0.513181072608    0.267082254023
 N   -0.342887538579   -1.834066547576    0.263618065076
 C    0.985241629884   -2.052260440326    0.279185493739
 H    1.299049912854   -3.098939172816    0.282565064430
 N    1.997591072925   -1.144279483185    0.293156764014
 C    1.685374329018    0.166541600064    0.288510360114
 N    2.693001283820    1.091040237369    0.246688523183
 H    3.624452821207    0.760510128617    0.469146457316
 H    2.460263777793    2.051010992408    0.471498768623
 C    0.319873488144    0.543235453931    0.279739272399
 N   -0.303655823047    1.782201154561    0.289617481417
 C   -1.603581310204    1.474121766200    0.281162628259
 H   -2.413634838991    2.200702567302    0.285210766122
 H   -2.748943884142   -0.343147916434    0.258524237782
NA   -1.840662710776    0.123010737845   -1.633858232125
