16

 N   -1.845326141584    0.116883296634    0.338858797842
 C   -0.613200409317   -0.513406983374    0.339813758150
 N   -0.343059473191   -1.834292458342    0.336349569203
 C    0.985069695272   -2.052486351092    0.351916997866
 H    1.298877978242   -3.099165083582    0.355296568557
 N    1.997419138313   -1.144505393951    0.365888268141
 C    1.685202394406    0.166315689298    0.361241864241
 N    2.692829349208    1.090814326603    0.319420027310
 H    3.624280886595    0.760284217851    0.541877961443
 H    2.460091843181    2.050785081642    0.544230272750
 C    0.319701553532    0.543009543165    0.352470776526
 N   -0.303827757659    1.781975243795    0.362348985544
 C   -1.603753244816    1.473895855434    0.353894132386
 H   -2.413806773603    2.200476656536    0.357942270249
 H   -2.749115818754   -0.343373827200    0.331255741909
NA   -1.839652672705    0.124337861406   -2.061122919008
