16

 N   -1.845360528507    0.116838114480    0.353405098667
 C   -0.613234796240   -0.513452165528    0.354360058975
 N   -0.343093860114   -1.834337640496    0.350895870028
 C    0.985035308349   -2.052531533246    0.366463298691
 H    1.298843591319   -3.099210265736    0.369842869382
 N    1.997384751390   -1.144550576105    0.380434568966
 C    1.685168007483    0.166270507144    0.375788165066
 N    2.692794962285    1.090769144449    0.333966328135
 H    3.624246499672    0.760239035697    0.556424262268
 H    2.460057456258    2.050739899488    0.558776573575
 C    0.319667166609    0.542964361011    0.367017077351
 N   -0.303862144582    1.781930061641    0.376895286369
 C   -1.603787631739    1.473850673280    0.368440433211
 H   -2.413841160526    2.200431474382    0.372488571074
 H   -2.749150205677   -0.343419009354    0.345802042734
NA   -1.839450665091    0.124603286119   -2.146575856385
