16

 N   -1.845463689274    0.116702568021    0.397044001144
 C   -0.613337957007   -0.513587711987    0.397998961452
 N   -0.343197020881   -1.834473186955    0.394534772505
 C    0.984932147582   -2.052667079705    0.410102201168
 H    1.298740430552   -3.099345812195    0.413481771859
 N    1.997281590623   -1.144686122564    0.424073471443
 C    1.685064846716    0.166134960685    0.419427067543
 N    2.692691801518    1.090633597990    0.377605230612
 H    3.624143338905    0.760103489238    0.600063164745
 H    2.459954295491    2.050604353029    0.602415476052
 C    0.319564005842    0.542828814552    0.410655979828
 N   -0.303965305349    1.781794515182    0.420534188846
 C   -1.603890792506    1.473715126821    0.412079335688
 H   -2.413944321293    2.200295927923    0.416127473551
 H   -2.749253366444   -0.343554555813    0.389440945211
NA   -1.838844642248    0.125399560256   -2.402934668515
