16

 N   -1.845498076196    0.116657385867    0.411590301969
 C   -0.613372343929   -0.513632894141    0.412545262277
 N   -0.343231407803   -1.834518369109    0.409081073330
 C    0.984897760660   -2.052712261859    0.424648501993
 H    1.298706043630   -3.099390994349    0.428028072684
 N    1.997247203701   -1.144731304718    0.438619772268
 C    1.685030459794    0.166089778531    0.433973368368
 N    2.692657414596    1.090588415836    0.392151531437
 H    3.624108951983    0.760058307084    0.614609465570
 H    2.459919908569    2.050559170875    0.616961776877
 C    0.319529618920    0.542783632398    0.425202280653
 N   -0.303999692271    1.781749333028    0.435080489671
 C   -1.603925179428    1.473669944667    0.426625636513
 H   -2.413978708215    2.200250745769    0.430673774376
 H   -2.749287753366   -0.343599737967    0.403987246036
NA   -1.838642634634    0.125664984968   -2.488387605891
