16

 N   -1.845601236964    0.116521839408    0.455229204445
 C   -0.613475504697   -0.513768440600    0.456184164753
 N   -0.343334568571   -1.834653915568    0.452719975806
 C    0.984794599892   -2.052847808318    0.468287404469
 H    1.298602882862   -3.099526540808    0.471666975160
 N    1.997144042933   -1.144866851177    0.482258674744
 C    1.684927299026    0.165954232072    0.477612270844
 N    2.692554253828    1.090452869377    0.435790433913
 H    3.624005791215    0.759922760625    0.658248368046
 H    2.459816747801    2.050423624416    0.660600679353
 C    0.319426458152    0.542648085939    0.468841183129
 N   -0.304102853039    1.781613786569    0.478719392147
 C   -1.604028340196    1.473534398208    0.470264538989
 H   -2.414081868983    2.200115199310    0.474312676852
 H   -2.749390914134   -0.343735284426    0.447626148512
NA   -1.838036611791    0.126461259105   -2.744746418022
