16

 N   -1.845635623886    0.116476657254    0.469775505271
 C   -0.613509891619   -0.513813622754    0.470730465579
 N   -0.343368955493   -1.834699097722    0.467266276632
 C    0.984760212970   -2.052892990472    0.482833705295
 H    1.298568495940   -3.099571722962    0.486213275986
 N    1.997109656011   -1.144912033331    0.496804975570
 C    1.684892912104    0.165909049918    0.492158571670
 N    2.692519866906    1.090407687223    0.450336734739
 H    3.623971404293    0.759877578471    0.672794668872
 H    2.459782360879    2.050378442262    0.675146980179
 C    0.319392071230    0.542602903785    0.483387483955
 N   -0.304137239961    1.781568604415    0.493265692973
 C   -1.604062727118    1.473489216054    0.484810839815
 H   -2.414116255905    2.200070017156    0.488858977678
 H   -2.749425301056   -0.343780466580    0.462172449338
NA   -1.837834604177    0.126726683817   -2.830199355398
