16

 N   -1.845807558498    0.116250746488    0.542507009398
 C   -0.613681826231   -0.514039533520    0.543461969706
 N   -0.343540890105   -1.834925008488    0.539997780759
 C    0.984588278358   -2.053118901238    0.555565209422
 H    1.298396561328   -3.099797633728    0.558944780113
 N    1.996937721399   -1.145137944097    0.569536479697
 C    1.684720977492    0.165683139152    0.564890075797
 N    2.692347932294    1.090181776457    0.523068238866
 H    3.623799469681    0.759651667705    0.745526172999
 H    2.459610426267    2.050152531496    0.747878484306
 C    0.319220136618    0.542376993019    0.556118988082
 N   -0.304309174573    1.781342693649    0.565997197100
 C   -1.604234661730    1.473263305288    0.557542343942
 H   -2.414288190517    2.199844106390    0.561590481805
 H   -2.749597235668   -0.344006377346    0.534903953465
NA   -1.836824566105    0.128053807379   -3.257464042282
