16

 N   -1.845910719265    0.116115200028    0.586145911874
 C   -0.613784986998   -0.514175079980    0.587100872182
 N   -0.343644050872   -1.835060554948    0.583636683235
 C    0.984485117591   -2.053254447698    0.599204111898
 H    1.298293400561   -3.099933180188    0.602583682589
 N    1.996834560632   -1.145273490557    0.613175382173
 C    1.684617816725    0.165547592692    0.608528978273
 N    2.692244771527    1.090046229997    0.566707141342
 H    3.623696308914    0.759516121245    0.789165075475
 H    2.459507265500    2.050016985036    0.791517386782
 C    0.319116975851    0.542241446559    0.599757890558
 N   -0.304412335340    1.781207147189    0.609636099576
 C   -1.604337822497    1.473127758828    0.601181246418
 H   -2.414391351284    2.199708559930    0.605229384281
 H   -2.749700396435   -0.344141923806    0.578542855941
NA   -1.836218543263    0.128850081515   -3.513822854412
