16

 N   -1.845945106187    0.116070017875    0.600692212699
 C   -0.613819373920   -0.514220262133    0.601647173007
 N   -0.343678437794   -1.835105737101    0.598182984060
 C    0.984450730669   -2.053299629851    0.613750412723
 H    1.298259013639   -3.099978362341    0.617129983414
 N    1.996800173710   -1.145318672710    0.627721682998
 C    1.684583429803    0.165502410539    0.623075279098
 N    2.692210384605    1.090001047844    0.581253442167
 H    3.623661921992    0.759470939092    0.803711376300
 H    2.459472878578    2.049971802883    0.806063687607
 C    0.319082588929    0.542196264406    0.614304191383
 N   -0.304446722262    1.781161965036    0.624182400401
 C   -1.604372209419    1.473082576675    0.615727547243
 H   -2.414425738206    2.199663377777    0.619775685106
 H   -2.749734783357   -0.344187105959    0.593089156766
NA   -1.836016535648    0.129115506228   -3.599275791788
