16

 N   -1.846117040799    0.115844107109    0.673423716826
 C   -0.613991308532   -0.514446172899    0.674378677134
 N   -0.343850372406   -1.835331647867    0.670914488187
 C    0.984278796057   -2.053525540617    0.686481916850
 H    1.298087079027   -3.100204273107    0.689861487541
 N    1.996628239098   -1.145544583476    0.700453187125
 C    1.684411495191    0.165276499773    0.695806783225
 N    2.692038449993    1.089775137078    0.653984946294
 H    3.623489987380    0.759245028326    0.876442880427
 H    2.459300943966    2.049745892117    0.878795191734
 C    0.318910654317    0.541970353640    0.687035695510
 N   -0.304618656874    1.780936054270    0.696913904528
 C   -1.604544144031    1.472856665909    0.688459051370
 H   -2.414597672818    2.199437467011    0.692507189233
 H   -2.749906717969   -0.344413016725    0.665820660893
NA   -1.835006497577    0.130442629789   -4.026540478672
