16

 N   -1.846220201567    0.115708560649    0.717062619303
 C   -0.614094469300   -0.514581719359    0.718017579611
 N   -0.343953533174   -1.835467194327    0.714553390664
 C    0.984175635289   -2.053661087077    0.730120819327
 H    1.297983918259   -3.100339819567    0.733500390018
 N    1.996525078330   -1.145680129936    0.744092089602
 C    1.684308334423    0.165140953313    0.739445685702
 N    2.691935289225    1.089639590618    0.697623848771
 H    3.623386826612    0.759109481866    0.920081782904
 H    2.459197783198    2.049610345657    0.922434094211
 C    0.318807493549    0.541834807180    0.730674597987
 N   -0.304721817642    1.780800507810    0.740552807005
 C   -1.604647304799    1.472721119449    0.732097953847
 H   -2.414700833586    2.199301920551    0.736146091710
 H   -2.750009878737   -0.344548563185    0.709459563370
NA   -1.834400474734    0.131238903926   -4.282899290802
