16

 N   -1.846254588489    0.115663378496    0.731608920128
 C   -0.614128856222   -0.514626901512    0.732563880436
 N   -0.343987920096   -1.835512376480    0.729099691489
 C    0.984141248367   -2.053706269230    0.744667120152
 H    1.297949531337   -3.100385001720    0.748046690843
 N    1.996490691408   -1.145725312089    0.758638390427
 C    1.684273947501    0.165095771160    0.753991986527
 N    2.691900902303    1.089594408465    0.712170149596
 H    3.623352439690    0.759064299713    0.934628083729
 H    2.459163396276    2.049565163504    0.936980395036
 C    0.318773106627    0.541789625027    0.745220898812
 N   -0.304756204564    1.780755325657    0.755099107830
 C   -1.604681691721    1.472675937296    0.746644254672
 H   -2.414735220508    2.199256738398    0.750692392535
 H   -2.750044265659   -0.344593745338    0.724005864195
NA   -1.834198467120    0.131504328638   -4.368352228179
