16

 N   -1.846288975411    0.115618196343    0.746155220953
 C   -0.614163243144   -0.514672083665    0.747110181261
 N   -0.344022307018   -1.835557558633    0.743645992314
 C    0.984106861445   -2.053751451383    0.759213420977
 H    1.297915144415   -3.100430183873    0.762592991668
 N    1.996456304486   -1.145770494242    0.773184691252
 C    1.684239560579    0.165050589007    0.768538287352
 N    2.691866515381    1.089549226312    0.726716450421
 H    3.623318052768    0.759019117560    0.949174384554
 H    2.459129009354    2.049519981351    0.951526695861
 C    0.318738719705    0.541744442874    0.759767199637
 N   -0.304790591486    1.780710143504    0.769645408655
 C   -1.604716078643    1.472630755143    0.761190555497
 H   -2.414769607430    2.199211556245    0.765238693360
 H   -2.750078652581   -0.344638927491    0.738552165020
NA   -1.833996459506    0.131769753351   -4.453805165555
