16

 N   -1.846357749256    0.115527832036    0.775247822604
 C   -0.614232016989   -0.514762447972    0.776202782912
 N   -0.344091080863   -1.835647922940    0.772738593965
 C    0.984038087600   -2.053841815690    0.788306022628
 H    1.297846370570   -3.100520548180    0.791685593319
 N    1.996387530641   -1.145860858549    0.802277292903
 C    1.684170786734    0.164960224700    0.797630889003
 N    2.691797741536    1.089458862005    0.755809052072
 H    3.623249278923    0.758928753253    0.978266986205
 H    2.459060235509    2.049429617044    0.980619297512
 C    0.318669945860    0.541654078567    0.788859801288
 N   -0.304859365331    1.780619779197    0.798738010306
 C   -1.604784852488    1.472540390836    0.790283157148
 H   -2.414838381275    2.199121191938    0.794331295011
 H   -2.750147426426   -0.344729291798    0.767644766671
NA   -1.833592444277    0.132300602775   -4.624711040309
