16

 N   -1.846426523101    0.115437467730    0.804340424255
 C   -0.614300790834   -0.514852812278    0.805295384563
 N   -0.344159854708   -1.835738287246    0.801831195616
 C    0.983969313755   -2.053932179996    0.817398624279
 H    1.297777596725   -3.100610912486    0.820778194970
 N    1.996318756796   -1.145951222855    0.831369894554
 C    1.684102012889    0.164869860394    0.826723490654
 N    2.691728967691    1.089368497699    0.784901653723
 H    3.623180505078    0.758838388947    1.007359587856
 H    2.458991461664    2.049339252738    1.009711899163
 C    0.318601172015    0.541563714261    0.817952402939
 N   -0.304928139176    1.780529414891    0.827830611957
 C   -1.604853626333    1.472450026530    0.819375758799
 H   -2.414907155120    2.199030827632    0.823423896662
 H   -2.750216200271   -0.344819656104    0.796737368322
NA   -1.833188429049    0.132831452200   -4.795616915062
