16

 N   -1.846460910023    0.115392285577    0.818886725080
 C   -0.614335177756   -0.514897994431    0.819841685388
 N   -0.344194241630   -1.835783469399    0.816377496441
 C    0.983934926833   -2.053977362149    0.831944925104
 H    1.297743209803   -3.100656094639    0.835324495795
 N    1.996284369874   -1.145996405008    0.845916195379
 C    1.684067625967    0.164824678241    0.841269791479
 N    2.691694580769    1.089323315546    0.799447954548
 H    3.623146118156    0.758793206794    1.021905888681
 H    2.458957074742    2.049294070585    1.024258199988
 C    0.318566785093    0.541518532108    0.832498703764
 N   -0.304962526098    1.780484232738    0.842376912782
 C   -1.604888013255    1.472404844377    0.833922059624
 H   -2.414941542042    2.198985645479    0.837970197487
 H   -2.750250587193   -0.344864838257    0.811283669147
NA   -1.832986421435    0.133096876912   -4.881069852439
