16

 N   -1.846564070791    0.115256739117    0.862525627557
 C   -0.614438338524   -0.515033540891    0.863480587865
 N   -0.344297402398   -1.835919015859    0.860016398918
 C    0.983831766065   -2.054112908609    0.875583827581
 H    1.297640049035   -3.100791641099    0.878963398272
 N    1.996181209106   -1.146131951468    0.889555097856
 C    1.683964465199    0.164689131781    0.884908693956
 N    2.691591420001    1.089187769086    0.843086857025
 H    3.623042957388    0.758657660334    1.065544791158
 H    2.458853913974    2.049158524125    1.067897102465
 C    0.318463624325    0.541382985648    0.876137606241
 N   -0.305065686866    1.780348686278    0.886015815259
 C   -1.604991174023    1.472269297917    0.877560962101
 H   -2.415044702810    2.198850099019    0.881609099964
 H   -2.750353747961   -0.345000384717    0.854922571624
NA   -1.832380398592    0.133893151049   -5.137428664569
