16

 N   -1.846667231558    0.115121192657    0.906164530033
 C   -0.614541499291   -0.515169087351    0.907119490341
 N   -0.344400563165   -1.836054562319    0.903655301394
 C    0.983728605298   -2.054248455069    0.919222730057
 H    1.297536888268   -3.100927187559    0.922602300748
 N    1.996078048339   -1.146267497928    0.933194000332
 C    1.683861304432    0.164553585321    0.928547596432
 N    2.691488259234    1.089052222626    0.886725759501
 H    3.622939796621    0.758522113874    1.109183693634
 H    2.458750753207    2.049022977665    1.111536004941
 C    0.318360463558    0.541247439188    0.919776508717
 N   -0.305168847633    1.780213139818    0.929654717735
 C   -1.605094334790    1.472133751457    0.921199864577
 H   -2.415147863577    2.198714552559    0.925248002440
 H   -2.750456908728   -0.345135931177    0.898561474100
NA   -1.831774375749    0.134689425186   -5.393787476699
