16

 N   -1.846770392325    0.114985646197    0.949803432509
 C   -0.614644660058   -0.515304633811    0.950758392817
 N   -0.344503723932   -1.836190108779    0.947294203870
 C    0.983625444531   -2.054384001529    0.962861632533
 H    1.297433727501   -3.101062734019    0.966241203224
 N    1.995974887572   -1.146403044388    0.976832902808
 C    1.683758143665    0.164418038861    0.972186498908
 N    2.691385098467    1.088916676166    0.930364661977
 H    3.622836635854    0.758386567414    1.152822596110
 H    2.458647592440    2.048887431205    1.155174907417
 C    0.318257302791    0.541111892728    0.963415411193
 N   -0.305272008400    1.780077593358    0.973293620211
 C   -1.605197495557    1.471998204997    0.964838767053
 H   -2.415251024344    2.198579006099    0.968886904916
 H   -2.750560069495   -0.345271477637    0.942200376576
NA   -1.831168352907    0.135485699323   -5.650146288829
