16

 N   -1.846873553092    0.114850099738    0.993442334985
 C   -0.614747820825   -0.515440180270    0.994397295293
 N   -0.344606884699   -1.836325655238    0.990933106346
 C    0.983522283764   -2.054519547988    1.006500535009
 H    1.297330566734   -3.101198280478    1.009880105700
 N    1.995871726805   -1.146538590847    1.020471805284
 C    1.683654982898    0.164282492402    1.015825401384
 N    2.691281937700    1.088781129707    0.974003564453
 H    3.622733475087    0.758251020955    1.196461498586
 H    2.458544431673    2.048751884746    1.198813809893
 C    0.318154142024    0.540976346269    1.007054313669
 N   -0.305375169167    1.779942046899    1.016932522687
 C   -1.605300656324    1.471862658538    1.008477669529
 H   -2.415354185111    2.198443459640    1.012525807392
 H   -2.750663230262   -0.345407024096    0.985839279052
NA   -1.830562330064    0.136281973460   -5.906505100959
