16

 N   -1.847079874626    0.114579006818    1.080720139938
 C   -0.614954142359   -0.515711273190    1.081675100246
 N   -0.344813206233   -1.836596748158    1.078210911299
 C    0.983315962230   -2.054790640908    1.093778339962
 H    1.297124245200   -3.101469373398    1.097157910653
 N    1.995665405271   -1.146809683767    1.107749610237
 C    1.683448661364    0.164011399482    1.103103206337
 N    2.691075616166    1.088510036787    1.061281369406
 H    3.622527153553    0.757979928035    1.283739303539
 H    2.458338110139    2.048480791826    1.286091614846
 C    0.317947820490    0.540705253349    1.094332118622
 N   -0.305581490701    1.779670953979    1.104210327640
 C   -1.605506977858    1.471591565618    1.095755474482
 H   -2.415560506645    2.198172366720    1.099803612345
 H   -2.750869551796   -0.345678117016    1.073117084005
NA   -1.829350284378    0.137874521733   -6.419222725219
