16

 N   -1.847183035394    0.114443460359    1.124359042414
 C   -0.615057303127   -0.515846819649    1.125314002722
 N   -0.344916367001   -1.836732294617    1.121849813775
 C    0.983212801462   -2.054926187367    1.137417242438
 H    1.297021084432   -3.101604919857    1.140796813129
 N    1.995562244503   -1.146945230226    1.151388512713
 C    1.683345500596    0.163875853023    1.146742108813
 N    2.690972455398    1.088374490328    1.104920271882
 H    3.622423992785    0.757844381576    1.327378206015
 H    2.458234949371    2.048345245367    1.329730517322
 C    0.317844659722    0.540569706890    1.137971021098
 N   -0.305684651469    1.779535407520    1.147849230116
 C   -1.605610138626    1.471456019159    1.139394376958
 H   -2.415663667413    2.198036820261    1.143442514821
 H   -2.750972712564   -0.345813663475    1.116755986481
NA   -1.828744261536    0.138670795870   -6.675581537349
