16

 N   -1.847217422316    0.114398278205    1.138905343239
 C   -0.615091690049   -0.515892001803    1.139860303547
 N   -0.344950753923   -1.836777476771    1.136396114600
 C    0.983178414540   -2.054971369521    1.151963543263
 H    1.296986697510   -3.101650102011    1.155343113954
 N    1.995527857581   -1.146990412380    1.165934813538
 C    1.683311113674    0.163830670869    1.161288409638
 N    2.690938068476    1.088329308174    1.119466572707
 H    3.622389605863    0.757799199422    1.341924506840
 H    2.458200562449    2.048300063213    1.344276818147
 C    0.317810272800    0.540524524736    1.152517321923
 N   -0.305719038391    1.779490225366    1.162395530941
 C   -1.605644525548    1.471410837005    1.153940677783
 H   -2.415698054335    2.197991638107    1.157988815646
 H   -2.751007099486   -0.345858845629    1.131302287306
NA   -1.828542253921    0.138936220583   -6.761034474726
