16

 N   -1.847354970006    0.114217549592    1.197090546541
 C   -0.615229237739   -0.516072730416    1.198045506849
 N   -0.345088301613   -1.836958205384    1.194581317902
 C    0.983040866850   -2.055152098134    1.210148746565
 H    1.296849149820   -3.101830830624    1.213528317256
 N    1.995390309891   -1.147171140993    1.224120016840
 C    1.683173565984    0.163649942256    1.219473612940
 N    2.690800520786    1.088148579561    1.177651776009
 H    3.622252058173    0.757618470809    1.400109710142
 H    2.458063014759    2.048119334600    1.402462021449
 C    0.317672725110    0.540343796123    1.210702525225
 N   -0.305856586081    1.779309496753    1.220580734243
 C   -1.605782073238    1.471230108392    1.212125881085
 H   -2.415835602025    2.197810909494    1.216174018948
 H   -2.751144647176   -0.346039574242    1.189487490608
NA   -1.827734223464    0.139997919432   -7.102846224233
