16

 N   -1.847423743850    0.114127185286    1.226183148192
 C   -0.615298011583   -0.516163094722    1.227138108500
 N   -0.345157075457   -1.837048569690    1.223673919553
 C    0.982972093006   -2.055242462440    1.239241348216
 H    1.296780375976   -3.101921194930    1.242620918907
 N    1.995321536047   -1.147261505299    1.253212618491
 C    1.683104792140    0.163559577950    1.248566214591
 N    2.690731746942    1.088058215255    1.206744377660
 H    3.622183284329    0.757528106503    1.429202311793
 H    2.457994240915    2.048028970294    1.431554623100
 C    0.317603951266    0.540253431817    1.239795126876
 N   -0.305925359925    1.779219132447    1.249673335894
 C   -1.605850847082    1.471139744086    1.241218482736
 H   -2.415904375869    2.197720545188    1.245266620599
 H   -2.751213421020   -0.346129938548    1.218580092259
NA   -1.827330208236    0.140528768856   -7.273752098986
