16

 N   -1.847458130773    0.114082003133    1.240729449017
 C   -0.615332398506   -0.516208276875    1.241684409325
 N   -0.345191462380   -1.837093751843    1.238220220378
 C    0.982937706083   -2.055287644593    1.253787649041
 H    1.296745989053   -3.101966377083    1.257167219732
 N    1.995287149124   -1.147306687452    1.267758919316
 C    1.683070405217    0.163514395797    1.263112515416
 N    2.690697360019    1.088013033102    1.221290678485
 H    3.622148897406    0.757482924350    1.443748612618
 H    2.457959853992    2.047983788141    1.446100923925
 C    0.317569564343    0.540208249664    1.254341427701
 N   -0.305959746848    1.779173950294    1.264219636719
 C   -1.605885234005    1.471094561933    1.255764783561
 H   -2.415938762792    2.197675363035    1.259812921424
 H   -2.751247807943   -0.346175120701    1.233126393084
NA   -1.827128200622    0.140794193569   -7.359205036363
