16

 N   -1.847492517695    0.114036820979    1.255275749842
 C   -0.615366785428   -0.516253459029    1.256230710150
 N   -0.345225849302   -1.837138933997    1.252766521203
 C    0.982903319161   -2.055332826747    1.268333949866
 H    1.296711602131   -3.102011559237    1.271713520557
 N    1.995252762202   -1.147351869606    1.282305220141
 C    1.683036018295    0.163469213643    1.277658816241
 N    2.690662973097    1.087967850948    1.235836979310
 H    3.622114510484    0.757437742196    1.458294913443
 H    2.457925467070    2.047938605987    1.460647224750
 C    0.317535177421    0.540163067510    1.268887728526
 N   -0.305994133770    1.779128768140    1.278765937544
 C   -1.605919620927    1.471049379779    1.270311084386
 H   -2.415973149714    2.197630180881    1.274359222249
 H   -2.751282194865   -0.346220302855    1.247672693909
NA   -1.826926193007    0.141059618281   -7.444657973739
