16

 N   -1.847630065385    0.113856092366    1.313460953144
 C   -0.615504333118   -0.516434187642    1.314415913452
 N   -0.345363396992   -1.837319662610    1.310951724505
 C    0.982765771471   -2.055513555360    1.326519153168
 H    1.296574054441   -3.102192287850    1.329898723859
 N    1.995115214512   -1.147532598219    1.340490423443
 C    1.682898470605    0.163288485030    1.335844019543
 N    2.690525425407    1.087787122335    1.294022182612
 H    3.621976962794    0.757257013583    1.516480116745
 H    2.457787919380    2.047757877374    1.518832428052
 C    0.317397629731    0.539982338897    1.327072931828
 N   -0.306131681460    1.778948039527    1.336951140846
 C   -1.606057168617    1.470868651166    1.328496287688
 H   -2.416110697404    2.197449452268    1.332544425551
 H   -2.751419742555   -0.346401031468    1.305857897211
NA   -1.826118162550    0.142121317130   -7.786469723246
