16

 N   -1.847664452307    0.113810910213    1.328007253969
 C   -0.615538720040   -0.516479369795    1.328962214277
 N   -0.345397783914   -1.837364844763    1.325498025330
 C    0.982731384549   -2.055558737513    1.341065453993
 H    1.296539667519   -3.102237470003    1.344445024684
 N    1.995080827590   -1.147577780372    1.355036724268
 C    1.682864083683    0.163243302877    1.350390320368
 N    2.690491038485    1.087741940182    1.308568483437
 H    3.621942575872    0.757211831430    1.531026417570
 H    2.457753532458    2.047712695221    1.533378728877
 C    0.317363242809    0.539937156744    1.341619232653
 N   -0.306166068382    1.778902857374    1.351497441671
 C   -1.606091555539    1.470823469013    1.343042588513
 H   -2.416145084326    2.197404270115    1.347090726376
 H   -2.751454129477   -0.346446213621    1.320404198036
NA   -1.825916154936    0.142386741842   -7.871922660623
