16

 N   -1.847698839230    0.113765728060    1.342553554795
 C   -0.615573106963   -0.516524551948    1.343508515103
 N   -0.345432170837   -1.837410026916    1.340044326156
 C    0.982696997626   -2.055603919666    1.355611754819
 H    1.296505280596   -3.102282652156    1.358991325510
 N    1.995046440667   -1.147622962525    1.369583025094
 C    1.682829696760    0.163198120724    1.364936621194
 N    2.690456651562    1.087696758029    1.323114784263
 H    3.621908188949    0.757166649277    1.545572718396
 H    2.457719145535    2.047667513068    1.547925029703
 C    0.317328855886    0.539891974591    1.356165533479
 N   -0.306200455305    1.778857675221    1.366043742497
 C   -1.606125942462    1.470778286860    1.357588889339
 H   -2.416179471249    2.197359087962    1.361637027202
 H   -2.751488516400   -0.346491395774    1.334950498862
NA   -1.825714147322    0.142652166555   -7.957375597999
