16

 N   -1.847801999997    0.113630181600    1.386192457271
 C   -0.615676267730   -0.516660098408    1.387147417579
 N   -0.345535331604   -1.837545573376    1.383683228632
 C    0.982593836859   -2.055739466126    1.399250657295
 H    1.296402119829   -3.102418198616    1.402630227986
 N    1.994943279900   -1.147758508985    1.413221927570
 C    1.682726535993    0.163062574264    1.408575523670
 N    2.690353490795    1.087561211569    1.366753686739
 H    3.621805028182    0.757031102817    1.589211620872
 H    2.457615984768    2.047531966608    1.591563932179
 C    0.317225695119    0.539756428131    1.399804435955
 N   -0.306303616072    1.778722128761    1.409682644973
 C   -1.606229103229    1.470642740400    1.401227791815
 H   -2.416282632016    2.197223541502    1.405275929678
 H   -2.751591677167   -0.346626942234    1.378589401338
NA   -1.825108124479    0.143448440692   -8.213734410129
