16

 N   -1.847905160764    0.113494635140    1.429831359747
 C   -0.615779428497   -0.516795644868    1.430786320055
 N   -0.345638492371   -1.837681119836    1.427322131108
 C    0.982490676092   -2.055875012586    1.442889559771
 H    1.296298959062   -3.102553745076    1.446269130462
 N    1.994840119133   -1.147894055445    1.456860830046
 C    1.682623375226    0.162927027804    1.452214426146
 N    2.690250330028    1.087425665109    1.410392589215
 H    3.621701867415    0.756895556357    1.632850523348
 H    2.457512824001    2.047396420148    1.635202834655
 C    0.317122534352    0.539620881671    1.443443338431
 N   -0.306406776839    1.778586582301    1.453321547449
 C   -1.606332263996    1.470507193940    1.444866694291
 H   -2.416385792783    2.197087995042    1.448914832154
 H   -2.751694837934   -0.346762488694    1.422228303814
NA   -1.824502101636    0.144244714828   -8.470093222260
