6

 H   -0.185156654399    1.433868949209    1.547221437364
 H    0.264900345601   -0.228056050791    2.003721437364
 H   -1.397066654399    0.130554949209    1.472495437364
 C   -0.331997654399    0.368065949209    1.287138437364
 S    0.151171345601    0.018964949209   -0.460144562636
LI    0.068178685183   -0.907919319470   -0.826201622111
