6

 H   -0.177610235981    1.518149372095    1.580506546213
 H    0.272446764019   -0.143775627905    2.037006546213
 H   -1.389520235981    0.214835372095    1.505780546213
 C   -0.324451235981    0.452346372095    1.320423546213
 S    0.158717764019    0.103245372095   -0.426859453787
LI    0.017630241308   -1.472457884660   -1.049156454895
