6

 H   -0.088131274740    2.517474386309    1.975172836843
 H    0.361925725260    0.855549386309    2.431672836843
 H   -1.300041274740    1.214160386309    1.900446836843
 C   -0.234972274740    1.451671386309    1.715089836843
 S    0.248196725260    1.102570386309   -0.032193163157
LI   -0.581729878925   -8.166272300482   -3.692763757910
