6

 H   -0.174376056659    1.554269553332    1.594771592862
 H    0.275680943341   -0.107655446668    2.051271592862
 H   -1.386286056659    0.250955553332    1.520045592862
 C   -0.321217056659    0.488466553332    1.334688592862
 S    0.161951943341    0.139365553332   -0.412594407138
LI   -0.004033377496   -1.714402984027   -1.144708526089
