6

 H   -0.172219937111    1.578349674156    1.604281623961
 H    0.277837062889   -0.083575325844    2.060781623961
 H   -1.384129937111    0.275035674156    1.529555623961
 C   -0.319060937111    0.512546674156    1.344198623961
 S    0.164108062889    0.163445674156   -0.403084376039
LI   -0.018475790032   -1.875699716938   -1.208409906884
