6

 H   -0.167907698015    1.626509915805    1.623301686160
 H    0.282149301985   -0.035415084195    2.079801686160
 H   -1.379817698015    0.323195915805    1.548575686160
 C   -0.314748698015    0.560706915805    1.363218686160
 S    0.168420301985    0.211605915805   -0.384064313840
LI   -0.047360615103   -2.198293182761   -1.335812668475
