6

 H   -0.166829638241    1.638549976217    1.628056701710
 H    0.283227361759   -0.023375023783    2.084556701710
 H   -1.378739638241    0.335235976217    1.553330701710
 C   -0.313670638241    0.572746976217    1.367973701710
 S    0.169498361759    0.223645976217   -0.379309298290
LI   -0.054581821371   -2.278941549217   -1.367663358873
