6

 H   -0.164673518693    1.662630097042    1.637566732810
 H    0.285383481307    0.000705097042    2.094066732810
 H   -1.376583518693    0.359316097042    1.562840732810
 C   -0.311514518693    0.596827097042    1.377483732810
 S    0.171654481307    0.247726097042   -0.369799267190
LI   -0.069024233907   -2.440238282128   -1.431364739669
