6

 H   -0.161439339371    1.698750278278    1.651831779459
 H    0.288617660629    0.036825278278    2.108331779459
 H   -1.373349339371    0.395436278278    1.577105779459
 C   -0.308280339371    0.632947278278    1.391748779459
 S    0.174888660629    0.283846278278   -0.355534220541
LI   -0.090687852710   -2.682183381495   -1.526916810862
