6

 H   -0.160361279597    1.710790338690    1.656586795009
 H    0.289695720403    0.048865338690    2.113086795009
 H   -1.372271279597    0.407476338690    1.581860795009
 C   -0.307202279597    0.644987338690    1.396503795009
 S    0.175966720403    0.295886338690   -0.350779204991
LI   -0.097909058978   -2.762831747951   -1.558767501260
