6

 H   -0.158205160049    1.734870459515    1.666096826108
 H    0.291851839951    0.072945459515    2.122596826108
 H   -1.370115160049    0.431556459515    1.591370826108
 C   -0.305046160049    0.669067459515    1.406013826108
 S    0.178122839951    0.319966459515   -0.341269173892
LI   -0.112351471514   -2.924128480862   -1.622468882055
