6

 H   -0.157127100275    1.746910519927    1.670851841658
 H    0.292929899725    0.084985519927    2.127351841658
 H   -1.369037100275    0.443596519927    1.596125841658
 C   -0.303968100275    0.681107519927    1.410768841658
 S    0.179200899725    0.332006519927   -0.336514158342
LI   -0.119572677782   -3.004776847318   -1.654319572453
