6

 H   -0.154970980727    1.770990640752    1.680361872758
 H    0.295086019273    0.109065640752    2.136861872758
 H   -1.366880980727    0.467676640752    1.605635872758
 C   -0.301811980727    0.705187640752    1.420278872758
 S    0.181357019273    0.356086640752   -0.327004127242
LI   -0.134015090318   -3.166073580229   -1.718020953249
