6

 H   -0.153892920953    1.783030701164    1.685116888307
 H    0.296164079047    0.121105701164    2.141616888307
 H   -1.365802920953    0.479716701164    1.610390888307
 C   -0.300733920953    0.717227701164    1.425033888307
 S    0.182435079047    0.368126701164   -0.322249111693
LI   -0.141236296585   -3.246721946685   -1.749871643646
