6

 H   -0.152814861179    1.795070761576    1.689871903857
 H    0.297242138821    0.133145761576    2.146371903857
 H   -1.364724861179    0.491756761576    1.615145903857
 C   -0.299655861179    0.729267761576    1.429788903857
 S    0.183513138821    0.380166761576   -0.317494096143
LI   -0.148457502853   -3.327370313141   -1.781722334044
