6

 H   -0.148502622083    1.843231003225    1.708891966056
 H    0.301554377917    0.181306003225    2.165391966056
 H   -1.360412622083    0.539917003225    1.634165966056
 C   -0.295343622083    0.777428003225    1.448808966056
 S    0.187825377917    0.428327003225   -0.298474033944
LI   -0.177342327925   -3.649963778964   -1.909125095635
