6

 H   -0.147424562309    1.855271063637    1.713646981606
 H    0.302632437691    0.193346063637    2.170146981606
 H   -1.359334562309    0.551957063637    1.638920981606
 C   -0.294265562309    0.789468063637    1.453563981606
 S    0.188903437691    0.440367063637   -0.293719018394
LI   -0.184563534193   -3.730612145419   -1.940975786033
