6

 H   -0.142034263439    1.915471365698    1.737422059355
 H    0.308022736561    0.253546365698    2.193922059355
 H   -1.353944263439    0.612157365698    1.662696059355
 C   -0.288875263439    0.849668365698    1.477339059355
 S    0.194293736561    0.500567365698   -0.269943940645
LI   -0.220669565532   -4.133853977698   -2.100229238022
