6

 H   -0.138800084117    1.951591546935    1.751687106004
 H    0.311256915883    0.289666546935    2.208187106004
 H   -1.350710084117    0.648277546935    1.676961106004
 C   -0.285641084117    0.885788546935    1.491604106004
 S    0.197527915883    0.536687546935   -0.255678893996
LI   -0.242333184335   -4.375799077065   -2.195781309215
