6

 H   -0.130175605925    2.047912030233    1.789727230402
 H    0.319881394075    0.385987030233    2.246227230402
 H   -1.342085605925    0.744598030233    1.715001230402
 C   -0.277016605925    0.982109030233    1.529644230402
 S    0.206152394075    0.633008030233   -0.217638769598
LI   -0.300102834478   -5.020986008710   -2.450586832397
