6

 H   -0.128019486377    2.071992151057    1.799237261502
 H    0.322037513623    0.410067151057    2.255737261502
 H   -1.339929486377    0.768678151057    1.724511261502
 C   -0.274860486377    1.006189151057    1.539154261502
 S    0.208308513623    0.657088151057   -0.208128738498
LI   -0.314545247014   -5.182282741622   -2.514288213193
