6

 H   -0.125863366829    2.096072271882    1.808747292601
 H    0.324193633171    0.434147271882    2.265247292601
 H   -1.337773366829    0.792758271882    1.734021292601
 C   -0.272704366829    1.030269271882    1.548664292601
 S    0.210464633171    0.681168271882   -0.198618707399
LI   -0.328987659550   -5.343579474533   -2.577989593988
