6

 H   -0.119395008185    2.168312634355    1.837277385900
 H    0.330661991815    0.506387634355    2.293777385900
 H   -1.331305008185    0.864998634355    1.762551385900
 C   -0.266236008185    1.102509634355    1.577194385900
 S    0.216932991815    0.753408634355   -0.170088614100
LI   -0.372314897157   -5.827469673267   -2.769093736375
