6

 H   -0.112926649541    2.240552996828    1.865807479199
 H    0.337130350459    0.578627996828    2.322307479199
 H   -1.324836649541    0.937238996828    1.791081479199
 C   -0.259767649541    1.174749996828    1.605724479199
 S    0.223401350459    0.825648996828   -0.141558520801
LI   -0.415642134764   -6.311359872002   -2.960197878761
