6

 H   -0.111848589767    2.252593057240    1.870562494748
 H    0.338208410233    0.590668057240    2.327062494748
 H   -1.323758589767    0.949279057240    1.795836494748
 C   -0.258689589767    1.186790057240    1.610479494748
 S    0.224479410233    0.837689057240   -0.136803505252
LI   -0.422863341032   -6.392008238457   -2.992048569159
