6

 H   -0.109692470219    2.276673178065    1.880072525848
 H    0.340364529781    0.614748178065    2.336572525848
 H   -1.321602470219    0.973359178065    1.805346525848
 C   -0.256533470219    1.210870178065    1.619989525848
 S    0.226635529781    0.861769178065   -0.127293474152
LI   -0.437305753568   -6.553304971369   -3.055749949955
