6

 H   -0.107536350671    2.300753298889    1.889582556947
 H    0.342520649329    0.638828298889    2.346082556947
 H   -1.319446350671    0.997439298889    1.814856556947
 C   -0.254377350671    1.234950298889    1.629499556947
 S    0.228791649329    0.885849298889   -0.117783443053
LI   -0.451748166103   -6.714601704280   -3.119451330750
