6

 H   -0.104302171350    2.336873480126    1.903847603597
 H    0.345754828650    0.674948480126    2.360347603597
 H   -1.316212171350    1.033559480126    1.829121603597
 C   -0.251143171350    1.271070480126    1.643764603597
 S    0.232025828650    0.921969480126   -0.103518396403
LI   -0.473411784907   -6.956546803647   -3.215003401943
