6

 H   -0.103224111576    2.348913540538    1.908602619146
 H    0.346832888424    0.686988540538    2.365102619146
 H   -1.315134111576    1.045599540538    1.833876619146
 C   -0.250065111576    1.283110540538    1.648519619146
 S    0.233103888424    0.934009540538   -0.098763380854
LI   -0.480632991175   -7.037195170103   -3.246854092341
