6

 H   -0.098911872480    2.397073782187    1.927622681346
 H    0.351145127520    0.735148782187    2.384122681346
 H   -1.310821872480    1.093759782187    1.852896681346
 C   -0.245752872480    1.331270782187    1.667539681346
 S    0.237416127520    0.982169782187   -0.079743318654
LI   -0.509517816246   -7.359788635926   -3.374256853932
