6

 H   -0.095677693158    2.433193963424    1.941887727995
 H    0.354379306842    0.771268963424    2.398387727995
 H   -1.307587693158    1.129879963424    1.867161727995
 C   -0.242518693158    1.367390963424    1.681804727995
 S    0.240650306842    1.018289963424   -0.065478272005
LI   -0.531181435050   -7.601733735293   -3.469808925126
