6

 H   -0.094599633384    2.445234023836    1.946642743545
 H    0.355457366616    0.783309023836    2.403142743545
 H   -1.306509633384    1.141920023836    1.871916743545
 C   -0.241440633384    1.379431023836    1.686559743545
 S    0.241728366616    1.030330023836   -0.060723256455
LI   -0.538402641318   -7.682382101748   -3.501659615523
