6

 H   -0.093521573610    2.457274084248    1.951397759094
 H    0.356535426390    0.795349084248    2.407897759094
 H   -1.305431573610    1.153960084248    1.876671759094
 C   -0.240362573610    1.391471084248    1.691314759094
 S    0.242806426390    1.042370084248   -0.055968240906
LI   -0.545623847585   -7.763030468204   -3.533510305921
