6

 H   -0.090287394288    2.493394265485    1.965662805744
 H    0.359769605712    0.831469265485    2.422162805744
 H   -1.302197394288    1.190080265485    1.890936805744
 C   -0.237128394288    1.427591265485    1.705579805744
 S    0.246040605712    1.078490265485   -0.041703194256
LI   -0.567287466389   -8.004975567571   -3.629062377114
