16

 C    2.413197806460    1.413025370732    3.000144059467
 H    2.486657806460    0.617235370732    3.748104059467
 H    1.888267806460    2.264395370732    3.445334059467
 H    3.391927806460    1.692785370732    2.585774059467
 C    1.556957806460    0.880145370732    1.818074059467
 O    0.834647806460    1.709065370732    1.198314059467
 O    1.587347806460   -0.362414629268    1.587054059467
CS   -1.747312193540   -0.499884629268    0.686174059467
CS    0.862597806460   -0.006204629268   -1.739585940533
 C    0.471986584221    0.261141685828    0.522052499080
 O    0.437601767543    1.505889523994    0.728620457297
 O    1.214438741401   -0.548939534405    1.147261710885
 C   -0.534345616980   -0.300274167214   -0.521296910648
 H   -0.845677995806   -1.307778428660   -0.225765300389
 H   -0.029538032845   -0.282270778990   -1.497321603528
 H   -1.408595784957    0.357151115988   -0.495093290693
