16

 C    2.440999335579    1.428886752361    3.033353765864
 H    2.514459335579    0.633096752361    3.781313765864
 H    1.916069335579    2.280256752361    3.478543765864
 H    3.419729335579    1.708646752361    2.618983765864
 C    1.584759335579    0.896006752361    1.851283765864
 O    0.862449335579    1.724926752361    1.231523765864
 O    1.615149335579   -0.346553247639    1.620263765864
CS   -1.719510664421   -0.484023247639    0.719383765864
CS    0.890399335579    0.009656752361   -1.706376234136
 C    0.318959576301    0.173835786640    0.339258612079
 O    0.284574759623    1.418583624807    0.545826570296
 O    1.061411733480   -0.636245433593    0.964467823884
 C   -0.687372624901   -0.387580066402   -0.704090797649
 H   -0.999843791777   -1.394501164885   -0.407774596776
 H   -0.182035482945   -0.370988731310   -1.679866448431
 H   -1.560994010182    0.270722596984   -0.678965761157
