16

 C    2.681945859390    1.566351938577    3.321171346234
 H    2.755405859390    0.770561938577    4.069131346234
 H    2.157015859390    2.417721938577    3.766361346234
 H    3.660675859390    1.846111938577    2.906801346234
 C    1.825705859390    1.033471938577    2.139101346234
 O    1.103395859390    1.862391938577    1.519341346234
 O    1.856095859390   -0.209088061423    1.908081346234
CS   -1.478564140610   -0.346558061423    1.007201346234
CS    1.131345859390    0.147121938577   -1.418558653766
 C   -1.007274554233   -0.582815460893   -1.244954950333
 O   -1.041659370911    0.661932377273   -1.038386992116
 O   -0.264822397053   -1.392896681126   -0.619745738528
 C   -2.013606755434   -1.144231313935   -2.288304360061
 H   -2.337098321480   -2.145409053976   -1.984449198605
 H   -1.503219234958   -1.141329546282   -3.261584987006
 H   -2.881065094153   -0.477516020304   -2.273650462093
