16

 C    2.700480202112    1.576926173619    3.343311170595
 H    2.773940202112    0.781136173619    4.091271170595
 H    2.175550202112    2.428296173619    3.788501170595
 H    3.679210202112    1.856686173619    2.928941170595
 C    1.844240202112    1.044046173619    2.161241170595
 O    1.121930202112    1.872966173619    1.541481170595
 O    1.874630202112   -0.198513826381    1.930221170595
CS   -1.460029797888   -0.335983826381    1.029341170595
CS    1.149880202112    0.157696173619   -1.396418829405
 C   -1.109292569538   -0.641019413062   -1.366817521571
 O   -1.143677386216    0.603728425104   -1.160249563354
 O   -0.366840412359   -1.451100633295   -0.741608309766
 C   -2.115624770740   -1.202435266104   -2.410166931299
 H   -2.440060158063   -2.203112692940   -2.105670648113
 H   -1.604810993338   -1.200708000549   -3.383226704113
 H   -2.982548692084   -0.535006076827   -2.396412630088
