16

 C    2.783884733375    1.624510210994    3.442940401742
 H    2.857344733375    0.828720210994    4.190900401742
 H    2.258954733375    2.475880210994    3.888130401742
 H    3.762614733375    1.904270210994    3.028570401742
 C    1.927644733375    1.091630210994    2.260870401742
 O    1.205334733375    1.920550210994    1.641110401742
 O    1.958034733375   -0.150929789006    2.029850401742
CS   -1.376625266625   -0.288399789006    1.128970401742
CS    1.233284733375    0.205280210994   -1.296789598258
 C   -1.568373649394   -0.902937218140   -1.915199070618
 O   -1.602758466072    0.341810620027   -1.708631112401
 O   -0.825921492215   -1.713018438372   -1.289989858814
 C   -2.574705850595   -1.464353071181   -2.958548480346
 H   -2.903584409713   -2.462657284923   -2.651043667736
 H   -2.061898735886   -1.468159369343   -3.930553313306
 H   -3.439099916060   -0.793577113915   -2.949035140026
