16

 C    2.895090743800    1.687955537642    3.575779437167
 H    2.968550743800    0.892165537642    4.323739437167
 H    2.370160743800    2.539325537642    4.020969437167
 H    3.873820743800    1.967715537642    3.161409437167
 C    2.038850743800    1.155075537642    2.393709437167
 O    1.316540743800    1.983995537642    1.773949437167
 O    2.069240743800   -0.087484462358    2.162689437167
CS   -1.265419256200   -0.224954462358    1.261809437167
CS    1.344490743800    0.268725537642   -1.163950562833
 C   -2.180481787129   -1.252161014760   -2.646374408785
 O   -2.214866603807   -0.007413176594   -2.439806450568
 O   -1.438029629949   -2.062242234993   -2.021165196980
 C   -3.186813988330   -1.813576867802   -3.689723818513
 H   -3.522165613114   -2.808370658965   -3.377864522647
 H   -2.671142280182   -1.825457876142   -4.660146690850
 H   -4.047480980745   -1.137966541197   -3.686406643305
