16

 C    2.959960897597    1.724965278227    3.653268910691
 H    3.033420897597    0.929175278227    4.401228910691
 H    2.435030897597    2.576335278227    4.098458910691
 H    3.938690897597    2.004725278227    3.238898910691
 C    2.103720897597    1.192085278227    2.471198910691
 O    1.381410897597    2.021005278227    1.851438910691
 O    2.134110897597   -0.050474721773    2.240178910691
CS   -1.200549102403   -0.187944721773    1.339298910691
CS    1.409360897597    0.305735278227   -1.086461089309
 C   -2.537544886424   -1.455874929416   -3.072893319856
 O   -2.571929703103   -0.211127091249   -2.866325361639
 O   -1.795092729245   -2.265956149648   -2.447684108051
 C   -3.543877087626   -2.017290782457   -4.116242729584
 H   -3.883330713218   -3.009827401910   -3.801641530100
 H   -3.026414330581   -2.034296818919   -5.085635379595
 H   -4.402156726801   -1.338642371879   -4.116862968734
