16

 C    3.024831035439    1.761974991567    3.730758414265
 H    3.098291035439    0.966184991567    4.478718414265
 H    2.499901035439    2.613344991567    4.175948414265
 H    4.003561035439    2.041734991567    3.316388414265
 C    2.168591035439    1.229094991567    2.548688414265
 O    1.446281035439    2.058014991567    1.928928414265
 O    2.198981035439   -0.013465008433    2.317668414265
CS   -1.135678964561   -0.150935008433    1.416788414265
CS    1.474231035439    0.342744991567   -1.008971585735
 C   -2.894608001675   -1.659588871316   -3.499412200878
 O   -2.928992818354   -0.414841033150   -3.292844242660
 O   -2.152155844496   -2.469670091549   -2.874202989073
 C   -3.900940202877   -2.221004724358   -4.542761610605
 H   -4.244764935142   -3.211108186225   -4.225253645536
 H   -3.381589654954   -2.243478907845   -5.511032719102
 H   -4.756654048322   -1.539140720107   -4.547586889865
