16

 C    3.052632517740    1.777836288334    3.763968211482
 H    3.126092517740    0.982046288334    4.511928211482
 H    2.527702517740    2.629206288334    4.209158211482
 H    4.031362517740    2.057596288334    3.349598211482
 C    2.196392517740    1.244956288334    2.581898211482
 O    1.474082517740    2.073876288334    1.962138211482
 O    2.226782517740    0.002396288334    2.350878211482
CS   -1.107877482260   -0.135073711666    1.449998211482
CS    1.502032517740    0.358606288334   -0.975761788518
 C   -3.047635056414   -1.746894855366   -3.682205997058
 O   -3.082019873092   -0.502147017200   -3.475638038841
 O   -2.305182899234   -2.556976075599   -3.056996785254
 C   -4.053967257615   -2.308310708408   -4.725555406786
 H   -4.399754249044   -3.297312506252   -4.406747596311
 H   -3.533776227865   -2.333241948893   -5.693315059755
 H   -4.908521942274   -1.625010500920   -4.732271527285
