16

 C    3.163838410699    1.841281416382    3.896807467070
 H    3.237298410699    1.045491416382    4.644767467070
 H    2.638908410699    2.692651416382    4.341997467070
 H    4.142568410699    2.121041416382    3.482437467070
 C    2.307598410699    1.308401416382    2.714737467070
 O    1.585288410699    2.137321416382    2.094977467070
 O    2.337988410699    0.065841416382    2.483717467070
CS   -0.996671589301   -0.071628583618    1.582837467070
CS    1.613238410699    0.422051416382   -0.842922532930
 C   -3.659743311615   -2.096118850587   -4.413381115062
 O   -3.694128128293   -0.851371012421   -4.206813156844
 O   -2.917291154435   -2.906200070820   -3.788171903257
 C   -4.666075512816   -2.657534703629   -5.456730524789
 H   -5.020303116655   -3.641731264079   -5.132367218177
 H   -4.142318598501   -2.693051345903   -6.422233649035
 H   -5.515592130938   -1.968108611540   -5.471602242290
