7

 C    0.013350198146    1.684943084129   -1.059952615498
 O    0.013350198146    0.250057084129   -1.059952615498
 H    0.932360198146   -0.046743915871   -1.059952615498
 H   -1.039968801854    1.992932084129   -1.059952615498
 H    0.502016198146    2.095876084129   -0.160512615498
 H    0.502016198146    2.095876084129   -1.959392615498
CS   -0.009609658416   -0.228771116527    0.255416685970
