7

 C    0.018636352925    1.795185932298   -1.362796219926
 O    0.018636352925    0.360299932298   -1.362796219926
 H    0.937646352925    0.063498932298   -1.362796219926
 H   -1.034682647075    2.103174932298   -1.362796219926
 H    0.507302352925    2.206118932298   -0.463356219926
 H    0.507302352925    2.206118932298   -2.262236219926
CS   -0.010883462655   -0.255336325688    0.328392881961
