7

 C    0.021279430314    1.850307356383   -1.514218022140
 O    0.021279430314    0.415421356383   -1.514218022140
 H    0.940289430314    0.118620356383   -1.514218022140
 H   -1.032039569686    2.158296356383   -1.514218022140
 H    0.509945430314    2.261240356383   -0.614778022140
 H    0.509945430314    2.261240356383   -2.413658022140
CS   -0.011520364774   -0.268618930268    0.364880979956
