7

 C    0.023922507703    1.905428780468   -1.665639824354
 O    0.023922507703    0.470542780468   -1.665639824354
 H    0.942932507703    0.173741780468   -1.665639824354
 H   -1.029396492297    2.213417780468   -1.665639824354
 H    0.512588507703    2.316361780468   -0.766199824354
 H    0.512588507703    2.316361780468   -2.565079824354
CS   -0.012157266894   -0.281901534849    0.401369077952
