7

 C    0.026565585092    1.960550204552   -1.817061626568
 O    0.026565585092    0.525664204552   -1.817061626568
 H    0.945575585092    0.228863204552   -1.817061626568
 H   -1.026753414908    2.268539204552   -1.817061626568
 H    0.515231585092    2.371483204552   -0.917621626568
 H    0.515231585092    2.371483204552   -2.716501626568
CS   -0.012794169014   -0.295184139429    0.437857175948
