7

 C    0.029208662481    2.015671628637   -1.968483428782
 O    0.029208662481    0.580785628637   -1.968483428782
 H    0.948218662481    0.283984628637   -1.968483428782
 H   -1.024110337519    2.323660628637   -1.968483428782
 H    0.517874662481    2.426604628637   -1.069043428782
 H    0.517874662481    2.426604628637   -2.867923428782
CS   -0.013431071133   -0.308466744010    0.474345273943
