7

 C    0.033173278565    2.098353764764   -2.195616132103
 O    0.033173278565    0.663467764764   -2.195616132103
 H    0.952183278565    0.366666764764   -2.195616132103
 H   -1.020145721435    2.406342764764   -2.195616132103
 H    0.521839278565    2.509286764764   -1.296176132103
 H    0.521839278565    2.509286764764   -3.095056132103
CS   -0.014386424313   -0.328390650880    0.529077420937
