7

 C    0.034494817260    2.125914476806   -2.271327033210
 O    0.034494817260    0.691028476806   -2.271327033210
 H    0.953504817260    0.394227476806   -2.271327033210
 H   -1.018824182740    2.433903476806   -2.271327033210
 H    0.523160817260    2.536847476806   -1.371887033210
 H    0.523160817260    2.536847476806   -3.170767033210
CS   -0.014704875373   -0.335031953171    0.547321469935
