7

 C    0.035816355954    2.153475188849   -2.347037934317
 O    0.035816355954    0.718589188849   -2.347037934317
 H    0.954826355954    0.421788188849   -2.347037934317
 H   -1.017502644046    2.461464188849   -2.347037934317
 H    0.524482355954    2.564408188849   -1.447597934317
 H    0.524482355954    2.564408188849   -3.246477934317
CS   -0.015023326432   -0.341673255461    0.565565518933
