7

 C    0.039780972038    2.236157324976   -2.574170637638
 O    0.039780972038    0.801271324976   -2.574170637638
 H    0.958790972038    0.504470324976   -2.574170637638
 H   -1.013538027962    2.544146324976   -2.574170637638
 H    0.528446972038    2.647090324976   -1.674730637638
 H    0.528446972038    2.647090324976   -3.473610637638
CS   -0.015978679612   -0.361597162331    0.620297665926
