7

 C    0.046388665511    2.373960885188   -2.952725143173
 O    0.046388665511    0.939074885188   -2.952725143173
 H    0.965398665511    0.642273885188   -2.952725143173
 H   -1.006930334489    2.681949885188   -2.952725143173
 H    0.535054665511    2.784893885188   -2.053285143173
 H    0.535054665511    2.784893885188   -3.852165143173
CS   -0.017570934911   -0.394803673782    0.711517910915
