7

 C    0.047710204206    2.401521597230   -3.028436044280
 O    0.047710204206    0.966635597230   -3.028436044280
 H    0.966720204206    0.669834597230   -3.028436044280
 H   -1.005608795794    2.709510597230   -3.028436044280
 H    0.536376204206    2.812454597230   -2.128996044280
 H    0.536376204206    2.812454597230   -3.927876044280
CS   -0.017889385971   -0.401444976073    0.729761959913
