7

 C    0.049031742900    2.429082309272   -3.104146945387
 O    0.049031742900    0.994196309272   -3.104146945387
 H    0.968041742900    0.697395309272   -3.104146945387
 H   -1.004287257100    2.737071309272   -3.104146945387
 H    0.537697742900    2.840015309272   -2.204706945387
 H    0.537697742900    2.840015309272   -4.003586945387
CS   -0.018207837030   -0.408086278363    0.748006008911
