7

 C    0.052996358984    2.511764445399   -3.331279648708
 O    0.052996358984    1.076878445399   -3.331279648708
 H    0.972006358984    0.780077445399   -3.331279648708
 H   -1.000322641016    2.819753445399   -3.331279648708
 H    0.541662358984    2.922697445399   -2.431839648708
 H    0.541662358984    2.922697445399   -4.230719648708
CS   -0.019163190210   -0.428010185234    0.802738155904
