7

 C    0.056960975068    2.594446581527   -3.558412352029
 O    0.056960975068    1.159560581527   -3.558412352029
 H    0.975970975068    0.862759581527   -3.558412352029
 H   -0.996358024932    2.902435581527   -3.558412352029
 H    0.545626975068    3.005379581527   -2.658972352029
 H    0.545626975068    3.005379581527   -4.457852352029
CS   -0.020118543389   -0.447934092104    0.857470302898
