7

 C    0.059604052457    2.649568005611   -3.709834154243
 O    0.059604052457    1.214682005611   -3.709834154243
 H    0.978614052457    0.917881005611   -3.709834154243
 H   -0.993714947543    2.957557005611   -3.709834154243
 H    0.548270052457    3.060501005611   -2.810394154243
 H    0.548270052457    3.060501005611   -4.609274154243
CS   -0.020755445509   -0.461216696685    0.893958400893
