7

 C    0.071497900708    2.897614413992   -4.391232264206
 O    0.071497900708    1.462728413992   -4.391232264206
 H    0.990507900708    1.165927413992   -4.391232264206
 H   -0.981821099292    3.205603413992   -4.391232264206
 H    0.560163900708    3.308547413992   -3.491792264206
 H    0.560163900708    3.308547413992   -5.290672264206
CS   -0.023621505047   -0.520988417296    1.058154841874
