7

 C    0.087356365044    3.228342958501   -5.299763077490
 O    0.087356365044    1.793456958501   -5.299763077490
 H    1.006366365044    1.496655958501   -5.299763077490
 H   -0.965962634956    3.536331958501   -5.299763077490
 H    0.576022365044    3.639275958501   -4.400323077490
 H    0.576022365044    3.639275958501   -6.199203077490
CS   -0.027442917765   -0.600684044779    1.277083429848
