14

 N   -0.120987437246    1.680862219285    0.000434314604
 C   -1.206434380149    2.503621189113    0.003576185825
 H   -1.014913540267    3.578678161612    0.001071587283
 C   -0.202851157928    0.261591757559    0.001451983488
 O    0.840892089390   -0.391650132502   -0.001028857824
 N   -1.476689246609   -0.280547874034    0.012065217618
 C   -2.534375359422    0.520804156841    0.009572172790
 N   -3.766368475878   -0.082994872239   -0.035833650419
 H   -3.775302944199   -1.082688758750    0.133736958146
 H   -4.584946220081    0.443433447161    0.239066474378
 C   -2.465793360988    1.962180996036    0.006088739124
 H   -3.354317076673    2.593498587280   -0.003393214903
 H    0.822952685681    2.055510431727   -0.002871581624
RB    1.773325845342   -0.975227358664   -0.003245131020
