14

 N   -0.157718782434    1.703851065839    0.000521620212
 C   -1.243165725337    2.526610035667    0.003663491433
 H   -1.051644885455    3.601667008166    0.001158892891
 C   -0.239582503116    0.284580604113    0.001539289096
 O    0.804160744202   -0.368661285948   -0.000941552216
 N   -1.513420591797   -0.257559027480    0.012152523226
 C   -2.571106704610    0.543793003395    0.009659478398
 N   -3.803099821066   -0.060006025685   -0.035746344811
 H   -3.812034289387   -1.059699912196    0.133824263754
 H   -4.621677565269    0.466422293715    0.239153779986
 C   -2.502524706176    1.985169842590    0.006176044732
 H   -3.391048421861    2.616487433834   -0.003305909295
 H    0.786221340493    2.078499278281   -0.002784276016
RB    1.821361205241   -1.005290987215   -0.003359304794
