14

 N   -0.231181472809    1.749828758948    0.000696231427
 C   -1.316628415712    2.572587728776    0.003838102648
 H   -1.125107575830    3.647644701275    0.001333504106
 C   -0.313045193491    0.330558297222    0.001713900311
 O    0.730698053827   -0.322683592839   -0.000766941001
 N   -1.586883282172   -0.211581334371    0.012327134441
 C   -2.644569394985    0.589770696504    0.009834089613
 N   -3.876562511441   -0.014028332576   -0.035571733596
 H   -3.885496979762   -1.013722219087    0.133998874969
 H   -4.695140255644    0.512399986824    0.239328391201
 C   -2.575987396551    2.031147535699    0.006350655947
 H   -3.464511112236    2.662465126943   -0.003131298080
 H    0.712758650118    2.124476971390   -0.002609664801
RB    1.917431925038   -1.065418244317   -0.003587652341
