14

 N   -0.341375508372    1.818795298612    0.000958148251
 C   -1.426822451275    2.641554268440    0.004100019472
 H   -1.235301611393    3.716611240939    0.001595420930
 C   -0.423239229054    0.399524836886    0.001975817135
 O    0.620504018264   -0.253717053175   -0.000505024177
 N   -1.697077317735   -0.142614794707    0.012589051265
 C   -2.754763430548    0.658737236168    0.010096006437
 N   -3.986756547004    0.054938207088   -0.035309816772
 H   -3.995691015325   -0.944755679423    0.134260791793
 H   -4.805334291207    0.581366526488    0.239590308025
 C   -2.686181432114    2.100114075363    0.006612572771
 H   -3.574705147799    2.731431666607   -0.002869381256
 H    0.602564614555    2.193443511054   -0.002347747977
RB    2.061538004735   -1.155609129970   -0.003930173662
