14

 N   -0.414838198747    1.864772991721    0.001132759466
 C   -1.500285141650    2.687531961549    0.004274630687
 H   -1.308764301768    3.762588934048    0.001770032145
 C   -0.496701919429    0.445502529995    0.002150428350
 O    0.547041327889   -0.207739360066   -0.000330412962
 N   -1.770540008110   -0.096637101598    0.012763662480
 C   -2.828226120923    0.704714929277    0.010270617652
 N   -4.060219237379    0.100915900197   -0.035135205557
 H   -4.069153705700   -0.898777986314    0.134435403008
 H   -4.878796981582    0.627344219597    0.239764919240
 C   -2.759644122489    2.146091768472    0.006787183986
 H   -3.648167838174    2.777409359716   -0.002694770041
 H    0.529101924180    2.239421204163   -0.002173136762
RB    2.157608724533   -1.215736387073   -0.004158521209
