14

 N   -0.451569543935    1.887761838275    0.001220065074
 C   -1.537016486838    2.710520808103    0.004361936295
 H   -1.345495646956    3.785577780602    0.001857337753
 C   -0.533433264617    0.468491376549    0.002237733958
 O    0.510309982701   -0.184750513512   -0.000243107354
 N   -1.807271353298   -0.073648255044    0.012850968088
 C   -2.864957466111    0.727703775831    0.010357923260
 N   -4.096950582567    0.123904746751   -0.035047899949
 H   -4.105885050888   -0.875789139760    0.134522708616
 H   -4.915528326770    0.650333066151    0.239852224848
 C   -2.796375467677    2.169080615026    0.006874489594
 H   -3.684899183362    2.800398206270   -0.002607464433
 H    0.492370578992    2.262410050717   -0.002085831154
RB    2.205644084432   -1.245800015624   -0.004272694983
