14

 N   -0.635226269873    2.002706071048    0.001656593113
 C   -1.720673212776    2.825465040876    0.004798464334
 H   -1.529152372894    3.900522013375    0.002293865792
 C   -0.717089990555    0.583435609322    0.002674261997
 O    0.326653256763   -0.069806280739    0.000193420685
 N   -1.990928079236    0.041295977729    0.013287496127
 C   -3.048614192049    0.842648008604    0.010794451299
 N   -4.280607308505    0.238848979524   -0.034611371910
 H   -4.289541776826   -0.760844906987    0.134959236655
 H   -5.099185052708    0.765277298924    0.240288752887
 C   -2.980032193615    2.284024847799    0.007311017633
 H   -3.868555909300    2.915342439043   -0.002170936394
 H    0.308713853054    2.377354283490   -0.001649303115
RB    2.445820883926   -1.396118158379   -0.004843563851
