14

 N   -0.745420305436    2.071672610711    0.001918509936
 C   -1.830867248339    2.894431580539    0.005060381157
 H   -1.639346408457    3.969488553038    0.002555782615
 C   -0.827284026118    0.652402148985    0.002936178820
 O    0.216459221200   -0.000839741076    0.000455337508
 N   -2.101122114799    0.110262517392    0.013549412950
 C   -3.158808227612    0.911614548267    0.011056368122
 N   -4.390801344068    0.307815519187   -0.034349455087
 H   -4.399735812389   -0.691878367324    0.135221153478
 H   -5.209379088271    0.834243838587    0.240550669710
 C   -3.090226229178    2.352991387462    0.007572934456
 H   -3.978749944863    2.984308978706   -0.001909019571
 H    0.198519817491    2.446320823153   -0.001387386292
RB    2.589926963623   -1.486309044033   -0.005186085172
