14

 N   -0.782151650624    2.094661457265    0.002005815544
 C   -1.867598593527    2.917420427093    0.005147686765
 H   -1.676077753645    3.992477399592    0.002643088223
 C   -0.864015371306    0.675390995539    0.003023484428
 O    0.179727876012    0.022149105478    0.000542643116
 N   -2.137853459987    0.133251363946    0.013636718558
 C   -3.195539572800    0.934603394821    0.011143673730
 N   -4.427532689256    0.330804365741   -0.034262149479
 H   -4.436467157577   -0.668889520770    0.135308459086
 H   -5.246110433459    0.857232685141    0.240637975318
 C   -3.126957574366    2.375980234016    0.007660240064
 H   -4.015481290051    3.007297825260   -0.001821713963
 H    0.161788472303    2.469309669707   -0.001300080684
RB    2.637962323522   -1.516372672584   -0.005300258946
