14

 N   -0.818882995812    2.117650303820    0.002093121152
 C   -1.904329938715    2.940409273648    0.005234992373
 H   -1.712809098833    4.015466246147    0.002730393831
 C   -0.900746716494    0.698379842094    0.003110790036
 O    0.142996530824    0.045137952033    0.000629948724
 N   -2.174584805175    0.156240210501    0.013724024166
 C   -3.232270917988    0.957592241376    0.011230979338
 N   -4.464264034444    0.353793212296   -0.034174843871
 H   -4.473198502765   -0.645900674215    0.135395764694
 H   -5.282841778647    0.880221531696    0.240725280926
 C   -3.163688919554    2.398969080571    0.007747545672
 H   -4.052212635239    3.030286671815   -0.001734408355
 H    0.125057127115    2.492298516262   -0.001212775076
RB    2.685997683421   -1.546436301135   -0.005414432720
