14

 N   -0.892345686187    2.163627996929    0.002267732368
 C   -1.977792629090    2.986386966757    0.005409603589
 H   -1.786271789208    4.061443939256    0.002905005047
 C   -0.974209406869    0.744357535203    0.003285401252
 O    0.069533840449    0.091115645142    0.000804559940
 N   -2.248047495550    0.202217903610    0.013898635382
 C   -3.305733608363    1.003569934485    0.011405590554
 N   -4.537726724819    0.399770905405   -0.034000232655
 H   -4.546661193140   -0.599922981106    0.135570375910
 H   -5.356304469022    0.926199224805    0.240899892142
 C   -3.237151609929    2.444946773680    0.007922156888
 H   -4.125675325614    3.076264364924   -0.001559797139
 H    0.051594436740    2.538276209371   -0.001038163860
RB    2.782068403218   -1.606563558237   -0.005642780267
