14

 N   -0.965808376562    2.209605690038    0.002442343583
 C   -2.051255319465    3.032364659866    0.005584214804
 H   -1.859734479583    4.107421632365    0.003079616262
 C   -1.047672097244    0.790335228312    0.003460012467
 O   -0.003928849926    0.137093338251    0.000979171155
 N   -2.321510185925    0.248195596719    0.014073246597
 C   -3.379196298738    1.049547627594    0.011580201769
 N   -4.611189415194    0.445748598514   -0.033825621440
 H   -4.620123883515   -0.553945287997    0.135744987125
 H   -5.429767159397    0.972176917914    0.241074503357
 C   -3.310614300304    2.490924466789    0.008096768103
 H   -4.199138015989    3.122242058033   -0.001385185924
 H   -0.021868253635    2.584253902480   -0.000863552645
RB    2.878139123016   -1.666690815340   -0.005871127814
