14

 N   -1.039271066937    2.255583383147    0.002616954799
 C   -2.124718009840    3.078342352975    0.005758826020
 H   -1.933197169958    4.153399325474    0.003254227478
 C   -1.121134787619    0.836312921421    0.003634623683
 O   -0.077391540301    0.183071031360    0.001153782371
 N   -2.394972876300    0.294173289828    0.014247857813
 C   -3.452658989113    1.095525320703    0.011754812985
 N   -4.684652105569    0.491726291623   -0.033651010224
 H   -4.693586573890   -0.507967594888    0.135919598341
 H   -5.503229849772    1.018154611023    0.241249114573
 C   -3.384076990679    2.536902159898    0.008271379319
 H   -4.272600706364    3.168219751142   -0.001210574708
 H   -0.095330944010    2.630231595589   -0.000688941429
RB    2.974209842814   -1.726818072442   -0.006099475361
