14

 N   -1.076002412125    2.278572229701    0.002704260407
 C   -2.161449355028    3.101331199529    0.005846131628
 H   -1.969928515146    4.176388172028    0.003341533086
 C   -1.157866132807    0.859301767975    0.003721929291
 O   -0.114122885489    0.206059877914    0.001241087979
 N   -2.431704221488    0.317162136382    0.014335163421
 C   -3.489390334301    1.118514167257    0.011842118593
 N   -4.721383450757    0.514715138177   -0.033563704616
 H   -4.730317919078   -0.484978748334    0.136006903949
 H   -5.539961194960    1.041143457577    0.241336420181
 C   -3.420808335867    2.559891006452    0.008358684927
 H   -4.309332051552    3.191208597696   -0.001123269100
 H   -0.132062289198    2.653220442143   -0.000601635821
RB    3.022245202713   -1.756881700993   -0.006213649135
