14

 N   -1.222927792876    2.370527615919    0.003053482838
 C   -2.308374735779    3.193286585747    0.006195354059
 H   -2.116853895897    4.268343558246    0.003690755517
 C   -1.304791513558    0.951257154193    0.004071151722
 O   -0.261048266240    0.298015264132    0.001590310410
 N   -2.578629602239    0.409117522600    0.014684385852
 C   -3.636315715052    1.210469553475    0.012191341024
 N   -4.868308831508    0.606670524395   -0.033214482185
 H   -4.877243299829   -0.393023362116    0.136356126380
 H   -5.686886575711    1.133098843795    0.241685642612
 C   -3.567733716618    2.651846392670    0.008707907358
 H   -4.456257432303    3.283163983914   -0.000774046669
 H   -0.278987669949    2.745175828361   -0.000252413390
RB    3.214386642308   -1.877136215197   -0.006670344230
