14

 N   -1.369853173626    2.462483002137    0.003402705269
 C   -2.455300116529    3.285241971965    0.006544576490
 H   -2.263779276647    4.360298944464    0.004039977948
 C   -1.451716894308    1.043212540411    0.004420374153
 O   -0.407973646990    0.389970650350    0.001939532841
 N   -2.725554982989    0.501072908818    0.015033608283
 C   -3.783241095802    1.302424939693    0.012540563455
 N   -5.015234212258    0.698625910613   -0.032865259754
 H   -5.024168680579   -0.301067975898    0.136705348811
 H   -5.833811956461    1.225054230013    0.242034865043
 C   -3.714659097368    2.743801778888    0.009057129789
 H   -4.603182813053    3.375119370132   -0.000424824238
 H   -0.425913050699    2.837131214579    0.000096809041
RB    3.406528081904   -1.997390729402   -0.007127039324
