14

 N   -1.443315864002    2.508460695246    0.003577316484
 C   -2.528762806905    3.331219665074    0.006719187705
 H   -2.337241967023    4.406276637573    0.004214589163
 C   -1.525179584684    1.089190233520    0.004594985368
 O   -0.481436337366    0.435948343459    0.002114144056
 N   -2.799017673365    0.547050601927    0.015208219498
 C   -3.856703786178    1.348402632802    0.012715174670
 N   -5.088696902634    0.744603603722   -0.032690648539
 H   -5.097631370955   -0.255090282789    0.136879960026
 H   -5.907274646837    1.271031923122    0.242209476258
 C   -3.788121787744    2.789779471997    0.009231741004
 H   -4.676645503429    3.421097063241   -0.000250213023
 H   -0.499375741075    2.883108907688    0.000271420256
RB    3.502598801702   -2.057517986504   -0.007355386872
