14

 N   -1.480047209189    2.531449541801    0.003664622092
 C   -2.565494152092    3.354208511629    0.006806493313
 H   -2.373973312210    4.429265484128    0.004301894771
 C   -1.561910929871    1.112179080075    0.004682290976
 O   -0.518167682553    0.458937190014    0.002201449664
 N   -2.835749018552    0.570039448482    0.015295525106
 C   -3.893435131365    1.371391479357    0.012802480278
 N   -5.125428247821    0.767592450277   -0.032603342931
 H   -5.134362716142   -0.232101436234    0.136967265634
 H   -5.944005992024    1.294020769677    0.242296781866
 C   -3.824853132931    2.812768318552    0.009319046612
 H   -4.713376848616    3.444085909796   -0.000162907415
 H   -0.536107086262    2.906097754243    0.000358725864
RB    3.550634161601   -2.087581615055   -0.007469560645
