14

 N   -1.590241244752    2.600416081464    0.003926538916
 C   -2.675688187655    3.423175051292    0.007068410137
 H   -2.484167347773    4.498232023791    0.004563811595
 C   -1.672104965434    1.181145619738    0.004944207800
 O   -0.628361718116    0.527903729677    0.002463366488
 N   -2.945943054115    0.639005988145    0.015557441930
 C   -4.003629166928    1.440358019020    0.013064397102
 N   -5.235622283384    0.836558989940   -0.032341426107
 H   -5.244556751705   -0.163134896571    0.137229182458
 H   -6.054200027587    1.362987309340    0.242558698690
 C   -3.935047168494    2.881734858215    0.009580963436
 H   -4.823570884179    3.513052449459    0.000099009409
 H   -0.646301121825    2.975064293906    0.000620642688
RB    3.694740241297   -2.177772500709   -0.007812081966
