14

 N   -1.626972589940    2.623404928018    0.004013844523
 C   -2.712419532843    3.446163897846    0.007155715744
 H   -2.520898692961    4.521220870345    0.004651117202
 C   -1.708836310622    1.204134466292    0.005031513407
 O   -0.665093063304    0.550892576231    0.002550672095
 N   -2.982674399303    0.661994834699    0.015644747537
 C   -4.040360512116    1.463346865574    0.013151702709
 N   -5.272353628572    0.859547836494   -0.032254120500
 H   -5.281288096893   -0.140146050017    0.137316488065
 H   -6.090931372775    1.385976155894    0.242646004297
 C   -3.971778513682    2.904723704769    0.009668269043
 H   -4.860302229367    3.536041296013    0.000186315016
 H   -0.683032467013    2.998053140460    0.000707948295
RB    3.742775601196   -2.207836129260   -0.007926255740
