14

 N   -1.700435280315    2.669382621127    0.004188455739
 C   -2.785882223218    3.492141590955    0.007330326960
 H   -2.594361383336    4.567198563454    0.004825728418
 C   -1.782299000997    1.250112159401    0.005206124623
 O   -0.738555753679    0.596870269340    0.002725283311
 N   -3.056137089678    0.707972527808    0.015819358753
 C   -4.113823202491    1.509324558683    0.013326313925
 N   -5.345816318947    0.905525529603   -0.032079509284
 H   -5.354750787268   -0.094168356908    0.137491099281
 H   -6.164394063150    1.431953849003    0.242820615513
 C   -4.045241204057    2.950701397878    0.009842880259
 H   -4.933764919742    3.582018989122    0.000360926232
 H   -0.756495157388    3.044030833569    0.000882559511
RB    3.838846320994   -2.267963386362   -0.008154603287
