14

 N   -1.737166625503    2.692371467682    0.004275761347
 C   -2.822613568406    3.515130437510    0.007417632568
 H   -2.631092728524    4.590187410009    0.004913034026
 C   -1.819030346185    1.273101005956    0.005293430231
 O   -0.775287098867    0.619859115895    0.002812588919
 N   -3.092868434866    0.730961374363    0.015906664361
 C   -4.150554547679    1.532313405238    0.013413619533
 N   -5.382547664135    0.928514376158   -0.031992203676
 H   -5.391482132456   -0.071179510353    0.137578404889
 H   -6.201125408338    1.454942695558    0.242907921121
 C   -4.081972549245    2.973690244433    0.009930185867
 H   -4.970496264930    3.605007835677    0.000448231840
 H   -0.793226502576    3.067019680124    0.000969865119
RB    3.886881680893   -2.298027014913   -0.008268777061
