14

 N   -1.810629315878    2.738349160791    0.004450372562
 C   -2.896076258781    3.561108130619    0.007592243783
 H   -2.704555418899    4.636165103118    0.005087645241
 C   -1.892493036560    1.319078699065    0.005468041446
 O   -0.848749789242    0.665836809004    0.002987200134
 N   -3.166331125241    0.776939067472    0.016081275576
 C   -4.224017238054    1.578291098347    0.013588230748
 N   -5.456010354510    0.974492069267   -0.031817592461
 H   -5.464944822831   -0.025201817244    0.137753016104
 H   -6.274588098713    1.500920388667    0.243082532336
 C   -4.155435239620    3.019667937542    0.010104797082
 H   -5.043958955305    3.650985528786    0.000622843055
 H   -0.866689192951    3.112997373233    0.001144476334
RB    3.982952400691   -2.358154272015   -0.008497124608
