14

 N   -1.847360661066    2.761338007345    0.004537678170
 C   -2.932807603969    3.584096977173    0.007679549391
 H   -2.741286764087    4.659153949672    0.005174950849
 C   -1.929224381748    1.342067545619    0.005555347054
 O   -0.885481134430    0.688825655558    0.003074505742
 N   -3.203062470429    0.799927914026    0.016168581184
 C   -4.260748583242    1.601279944901    0.013675536356
 N   -5.492741699698    0.997480915821   -0.031730286853
 H   -5.501676168019   -0.002212970690    0.137840321712
 H   -6.311319443901    1.523909235221    0.243169837944
 C   -4.192166584808    3.042656784096    0.010192102690
 H   -5.080690300493    3.673974375340    0.000710148663
 H   -0.903420538139    3.135986219787    0.001231781942
RB    4.030987760590   -2.388217900566   -0.008611298382
