14

 N   -2.031017387004    2.876282240118    0.004974206209
 C   -3.116464329907    3.699041209946    0.008116077430
 H   -2.924943490025    4.774098182445    0.005611478888
 C   -2.112881107686    1.457011778392    0.005991875093
 O   -1.069137860368    0.803769888331    0.003511033781
 N   -3.386719196367    0.914872146799    0.016605109223
 C   -4.444405309180    1.716224177674    0.014112064395
 N   -5.676398425636    1.112425148594   -0.031293758814
 H   -5.685332893957    0.112731262083    0.138276849751
 H   -6.494976169839    1.638853467994    0.243606365983
 C   -4.375823310746    3.157601016869    0.010628630729
 H   -5.264347026431    3.788918608113    0.001146676702
 H   -1.087077264077    3.250930452560    0.001668309981
RB    4.271164560084   -2.538536043322   -0.009182167250
