14

 N   -2.067748732192    2.899271086672    0.005061511817
 C   -3.153195675095    3.722030056500    0.008203383038
 H   -2.961674835213    4.797087028999    0.005698784496
 C   -2.149612452874    1.480000624946    0.006079180701
 O   -1.105869205556    0.826758734885    0.003598339389
 N   -3.423450541555    0.937860993353    0.016692414831
 C   -4.481136654368    1.739213024228    0.014199370003
 N   -5.713129770824    1.135413995148   -0.031206453206
 H   -5.722064239145    0.135720108637    0.138364155359
 H   -6.531707515027    1.661842314548    0.243693671591
 C   -4.412554655934    3.180589863423    0.010715936337
 H   -5.301078371619    3.811907454667    0.001233982310
 H   -1.123808609265    3.273919299114    0.001755615589
RB    4.319199919983   -2.568599671873   -0.009296341024
