14

 N   -2.177942767755    2.968237626336    0.005323428640
 C   -3.263389710658    3.790996596164    0.008465299861
 H   -3.071868870776    4.866053568663    0.005960701319
 C   -2.259806488437    1.548967164610    0.006341097524
 O   -1.216063241119    0.895725274549    0.003860256212
 N   -3.533644577118    1.006827533017    0.016954331654
 C   -4.591330689931    1.808179563892    0.014461286826
 N   -5.823323806387    1.204380534812   -0.030944536383
 H   -5.832258274708    0.204686648301    0.138626072182
 H   -6.641901550590    1.730808854212    0.243955588414
 C   -4.522748691497    3.249556403087    0.010977853160
 H   -5.411272407182    3.880873994331    0.001495899133
 H   -1.234002644828    3.342885838778    0.002017532412
RB    4.463305999680   -2.658790557527   -0.009638862345
