14

 N   -2.251405458130    3.014215319445    0.005498039856
 C   -3.336852401033    3.836974289273    0.008639911077
 H   -3.145331561151    4.912031261772    0.006135312535
 C   -2.333269178812    1.594944857719    0.006515708740
 O   -1.289525931494    0.941702967658    0.004034867428
 N   -3.607107267493    1.052805226126    0.017128942870
 C   -4.664793380306    1.854157257001    0.014635898042
 N   -5.896786496762    1.250358227921   -0.030769925167
 H   -5.905720965083    0.250664341410    0.138800683398
 H   -6.715364240965    1.776786547321    0.244130199630
 C   -4.596211381872    3.295534096196    0.011152464376
 H   -5.484735097557    3.926851687440    0.001670510349
 H   -1.307465335203    3.388863531887    0.002192143628
RB    4.559376719477   -2.718917814629   -0.009867209892
