14

 N   -2.288136803318    3.037204165999    0.005585345464
 C   -3.373583746221    3.859963135827    0.008727216685
 H   -3.182062906339    4.935020108326    0.006222618143
 C   -2.370000524000    1.617933704273    0.006603014348
 O   -1.326257276682    0.964691814212    0.004122173036
 N   -3.643838612681    1.075794072680    0.017216248478
 C   -4.701524725494    1.877146103555    0.014723203650
 N   -5.933517841950    1.273347074475   -0.030682619559
 H   -5.942452310271    0.273653187964    0.138887989006
 H   -6.752095586153    1.799775393875    0.244217505238
 C   -4.632942727060    3.318522942750    0.011239769984
 H   -5.521466442745    3.949840533994    0.001757815957
 H   -1.344196680391    3.411852378441    0.002279449236
RB    4.607412079376   -2.748981443180   -0.009981383666
