14

 N   -2.545256219631    3.198126091880    0.006196484718
 C   -3.630703162534    4.020885061708    0.009338355939
 H   -3.439182322652    5.095942034207    0.006833757397
 C   -2.627119940313    1.778855630154    0.007214153602
 O   -1.583376692995    1.125613740093    0.004733312290
 N   -3.900958028994    1.236715998561    0.017827387732
 C   -4.958644141807    2.038068029436    0.015334342904
 N   -6.190637258263    1.434269000356   -0.030071480305
 H   -6.199571726584    0.434575113845    0.139499128260
 H   -7.009215002466    1.960697319756    0.244828644492
 C   -4.890062143373    3.479444868631    0.011850909238
 H   -5.778585859058    4.110762459875    0.002368955211
 H   -1.601316096704    3.572774304322    0.002890588490
RB    4.943659598668   -2.959426843038   -0.010780600081
