14

 N   -2.986032361883    3.473992250534    0.007244152012
 C   -4.071479304786    4.296751220362    0.010386023233
 H   -3.879958464904    5.371808192861    0.007881424691
 C   -3.067896082565    2.054721788808    0.008261820896
 O   -2.024152835247    1.401479898747    0.005780979584
 N   -4.341734171246    1.512582157215    0.018875055026
 C   -5.399420284059    2.313934188090    0.016382010198
 N   -6.631413400515    1.710135159010   -0.029023813011
 H   -6.640347868836    0.710441272499    0.140546795554
 H   -7.449991144718    2.236563478410    0.245876311786
 C   -5.330838285625    3.755311027285    0.012898576532
 H   -6.219362001310    4.386628618529    0.003416622505
 H   -2.042092238956    3.848640462976    0.003938255784
RB    5.520083917455   -3.320190385651   -0.012150685365
