14

 N   -3.132957742634    3.565947636752    0.007593374443
 C   -4.218404685537    4.388706606580    0.010735245664
 H   -4.026883845655    5.463763579079    0.008230647122
 C   -3.214821463316    2.146677175026    0.008611043327
 O   -2.171078215998    1.493435284965    0.006130202015
 N   -4.488659551997    1.604537543433    0.019224277457
 C   -5.546345664810    2.405889574308    0.016731232629
 N   -6.778338781266    1.802090545228   -0.028674590580
 H   -6.787273249587    0.802396658717    0.140896017985
 H   -7.596916525469    2.328518864628    0.246225534217
 C   -5.477763666376    3.847266413503    0.013247798963
 H   -6.366287382061    4.478584004747    0.003765844936
 H   -2.189017619707    3.940595849194    0.004287478215
RB    5.712225357051   -3.440444899856   -0.012607380460
