14

 N   -3.243151778197    3.634914176415    0.007855291266
 C   -4.328598721100    4.457673146243    0.010997162487
 H   -4.137077881218    5.532730118742    0.008492563945
 C   -3.325015498879    2.215643714689    0.008872960150
 O   -2.281272251561    1.562401824628    0.006392118838
 N   -4.598853587560    1.673504083096    0.019486194280
 C   -5.656539700373    2.474856113971    0.016993149452
 N   -6.888532816829    1.871057084891   -0.028412673757
 H   -6.897467285150    0.871363198380    0.141157934808
 H   -7.707110561032    2.397485404291    0.246487451040
 C   -5.587957701939    3.916232953166    0.013509715786
 H   -6.476481417624    4.547550544410    0.004027761759
 H   -2.299211655270    4.009562388857    0.004549395038
RB    5.856331436747   -3.530635785509   -0.012949901781
