14

 N   -3.316614468572    3.680891869524    0.008029902482
 C   -4.402061411475    4.503650839352    0.011171773703
 H   -4.210540571593    5.578707811851    0.008667175161
 C   -3.398478189254    2.261621407798    0.009047571366
 O   -2.354734941936    1.608379517737    0.006566730054
 N   -4.672316277935    1.719481776205    0.019660805496
 C   -5.730002390748    2.520833807080    0.017167760668
 N   -6.961995507204    1.917034778000   -0.028238062541
 H   -6.970929975525    0.917340891489    0.141332546024
 H   -7.780573251407    2.443463097400    0.246662062256
 C   -5.661420392314    3.962210646275    0.013684327002
 H   -6.549944107999    4.593528237519    0.004202372975
 H   -2.372674345645    4.055540081966    0.004724006254
RB    5.952402156545   -3.590763042611   -0.013178249328
