9

 C   -2.656974696931   -1.630565231444    0.000000000000
 H   -3.635901696931   -1.138777231444    0.000000000000
 H   -2.549828696931   -2.270374231444    0.888272000000
 H   -2.549828696931   -2.270374231444   -0.888272000000
 C   -1.572347696931   -0.584981231444    0.000000000000
 O   -1.733451696931    0.624569768556    0.000000000000
 O   -0.330061696931   -1.161989231444    0.000000000000
 H    0.304474303069   -0.423426231444    0.000000000000
RB    1.086476305118    0.486778618462    0.000000000000
