9

 C   -2.695153962887   -1.675003676548    0.000000000000
 H   -3.674080962887   -1.183215676548    0.000000000000
 H   -2.588007962887   -2.314812676548    0.888272000000
 H   -2.588007962887   -2.314812676548   -0.888272000000
 C   -1.610526962887   -0.629419676548    0.000000000000
 O   -1.771630962887    0.580131323452    0.000000000000
 O   -0.368240962887   -1.206427676548    0.000000000000
 H    0.266295037113   -0.467864676548    0.000000000000
RB    1.113463872666    0.518190577516    0.000000000000
