9

 C   -2.809691760756   -1.808319011860    0.000000000000
 H   -3.788618760756   -1.316531011860    0.000000000000
 H   -2.702545760756   -2.448128011860    0.888272000000
 H   -2.702545760756   -2.448128011860   -0.888272000000
 C   -1.725064760756   -0.762735011860    0.000000000000
 O   -1.886168760756    0.446815988140    0.000000000000
 O   -0.482778760756   -1.339743011860    0.000000000000
 H    0.151757239244   -0.601180011860    0.000000000000
RB    1.194426575309    0.612426454680    0.000000000000
