9

 C   -2.924229558626   -1.941634347172    0.000000000000
 H   -3.903156558626   -1.449846347172    0.000000000000
 H   -2.817083558626   -2.581443347172    0.888272000000
 H   -2.817083558626   -2.581443347172   -0.888272000000
 C   -1.839602558626   -0.896050347172    0.000000000000
 O   -2.000706558626    0.313500652828    0.000000000000
 O   -0.597316558626   -1.473058347172    0.000000000000
 H    0.037219441374   -0.734495347172    0.000000000000
RB    1.275389277952    0.706662331844    0.000000000000
