9

 C   -6.016750101095   -5.541148400603    0.000000000000
 H   -6.995677101095   -5.049360400603    0.000000000000
 H   -5.909604101095   -6.180957400603    0.888272000000
 H   -5.909604101095   -6.180957400603   -0.888272000000
 C   -4.932123101095   -4.495564400603    0.000000000000
 O   -5.093227101095   -3.286013400603    0.000000000000
 O   -3.689837101095   -5.072572400603    0.000000000000
 H   -3.055301101095   -4.334009400603    0.000000000000
RB    3.461382249315    3.251031015274    0.000000000000
