9

 C   -2.962408824582   -1.986072792276    0.000000000000
 H   -3.941335824582   -1.494284792276    0.000000000000
 H   -2.855262824582   -2.625881792276    0.888272000000
 H   -2.855262824582   -2.625881792276   -0.888272000000
 C   -1.877781824582   -0.940488792276    0.000000000000
 O   -2.038885824582    0.269062207724    0.000000000000
 O   -0.635495824582   -1.517496792276    0.000000000000
 H   -0.000959824582   -0.778933792276    0.000000000000
RB    1.302376845500    0.738074290899    0.000000000000
