9

 C   -3.115125888408   -2.163826572693    0.000000000000
 H   -4.094052888408   -1.672038572693    0.000000000000
 H   -3.007979888408   -2.803635572693    0.888272000000
 H   -3.007979888408   -2.803635572693   -0.888272000000
 C   -2.030498888408   -1.118242572693    0.000000000000
 O   -2.191602888408    0.091308427307    0.000000000000
 O   -0.788212888408   -1.695250572693    0.000000000000
 H   -0.153676888408   -0.956687572693    0.000000000000
RB    1.410327115691    0.863722127118    0.000000000000
