9

 C   -3.229663686277   -2.297141908005    0.000000000000
 H   -4.208590686277   -1.805353908005    0.000000000000
 H   -3.122517686277   -2.936950908005    0.888272000000
 H   -3.122517686277   -2.936950908005   -0.888272000000
 C   -2.145036686277   -1.251557908005    0.000000000000
 O   -2.306140686277   -0.042006908005    0.000000000000
 O   -0.902750686277   -1.828565908005    0.000000000000
 H   -0.268214686277   -1.090002908005    0.000000000000
RB    1.491289818334    0.957958004282    0.000000000000
