9

 C   -3.344201484146   -2.430457243317    0.000000000000
 H   -4.323128484146   -1.938669243317    0.000000000000
 H   -3.237055484146   -3.070266243317    0.888272000000
 H   -3.237055484146   -3.070266243317   -0.888272000000
 C   -2.259574484146   -1.384873243317    0.000000000000
 O   -2.420678484146   -0.175322243317    0.000000000000
 O   -1.017288484146   -1.961881243317    0.000000000000
 H   -0.382752484146   -1.223318243317    0.000000000000
RB    1.572252520977    1.052193881446    0.000000000000
