9

 C   -3.458739282015   -2.563772578629    0.000000000000
 H   -4.437666282015   -2.071984578629    0.000000000000
 H   -3.351593282015   -3.203581578629    0.888272000000
 H   -3.351593282015   -3.203581578629   -0.888272000000
 C   -2.374112282015   -1.518188578629    0.000000000000
 O   -2.535216282015   -0.308637578629    0.000000000000
 O   -1.131826282015   -2.095196578629    0.000000000000
 H   -0.497290282015   -1.356633578629    0.000000000000
RB    1.653215223620    1.146429758610    0.000000000000
