9

 C   -3.496918547972   -2.608211023733    0.000000000000
 H   -4.475845547972   -2.116423023733    0.000000000000
 H   -3.389772547972   -3.248020023733    0.888272000000
 H   -3.389772547972   -3.248020023733   -0.888272000000
 C   -2.412291547972   -1.562627023733    0.000000000000
 O   -2.573395547972   -0.353076023733    0.000000000000
 O   -1.170005547972   -2.139635023733    0.000000000000
 H   -0.535469547972   -1.401072023733    0.000000000000
RB    1.680202791168    1.177841717665    0.000000000000
