9

 C   -3.535097813928   -2.652649468837    0.000000000000
 H   -4.514024813928   -2.160861468837    0.000000000000
 H   -3.427951813928   -3.292458468837    0.888272000000
 H   -3.427951813928   -3.292458468837   -0.888272000000
 C   -2.450470813928   -1.607065468837    0.000000000000
 O   -2.611574813928   -0.397514468837    0.000000000000
 O   -1.208184813928   -2.184073468837    0.000000000000
 H   -0.573648813928   -1.445510468837    0.000000000000
RB    1.707190358715    1.209253676719    0.000000000000
