9

 C   -3.573277079885   -2.697087913942    0.000000000000
 H   -4.552204079885   -2.205299913942    0.000000000000
 H   -3.466131079885   -3.336896913942    0.888272000000
 H   -3.466131079885   -3.336896913942   -0.888272000000
 C   -2.488650079885   -1.651503913942    0.000000000000
 O   -2.649754079885   -0.441952913942    0.000000000000
 O   -1.246364079885   -2.228511913942    0.000000000000
 H   -0.611828079885   -1.489948913942    0.000000000000
RB    1.734177926263    1.240665635774    0.000000000000
