9

 C   -3.764173409667   -2.919280139462    0.000000000000
 H   -4.743100409667   -2.427492139462    0.000000000000
 H   -3.657027409667   -3.559089139462    0.888272000000
 H   -3.657027409667   -3.559089139462   -0.888272000000
 C   -2.679546409667   -1.873696139462    0.000000000000
 O   -2.840650409667   -0.664145139462    0.000000000000
 O   -1.437260409667   -2.450704139462    0.000000000000
 H   -0.802724409667   -1.712141139462    0.000000000000
RB    1.869115764001    1.397725431048    0.000000000000
