9

 C   -3.840531941580   -3.008157029670    0.000000000000
 H   -4.819458941580   -2.516369029670    0.000000000000
 H   -3.733385941580   -3.647966029670    0.888272000000
 H   -3.733385941580   -3.647966029670   -0.888272000000
 C   -2.755904941580   -1.962573029670    0.000000000000
 O   -2.917008941580   -0.753022029670    0.000000000000
 O   -1.513618941580   -2.539581029670    0.000000000000
 H   -0.879082941580   -1.801018029670    0.000000000000
RB    1.923090899097    1.460549349157    0.000000000000
