9

 C   -3.955069739449   -3.141472364982    0.000000000000
 H   -4.933996739449   -2.649684364982    0.000000000000
 H   -3.847923739449   -3.781281364982    0.888272000000
 H   -3.847923739449   -3.781281364982   -0.888272000000
 C   -2.870442739449   -2.095888364982    0.000000000000
 O   -3.031546739449   -0.886337364982    0.000000000000
 O   -1.628156739449   -2.672896364982    0.000000000000
 H   -0.993620739449   -1.934333364982    0.000000000000
RB    2.004053601740    1.554785226321    0.000000000000
