9

 C   -3.993249005405   -3.185910810086    0.000000000000
 H   -4.972176005405   -2.694122810086    0.000000000000
 H   -3.886103005405   -3.825719810086    0.888272000000
 H   -3.886103005405   -3.825719810086   -0.888272000000
 C   -2.908622005405   -2.140326810086    0.000000000000
 O   -3.069726005405   -0.930775810086    0.000000000000
 O   -1.666336005405   -2.717334810086    0.000000000000
 H   -1.031800005405   -1.978771810086    0.000000000000
RB    2.031041169288    1.586197185376    0.000000000000
