9

 C   -4.069607537318   -3.274787700295    0.000000000000
 H   -5.048534537318   -2.782999700295    0.000000000000
 H   -3.962461537318   -3.914596700295    0.888272000000
 H   -3.962461537318   -3.914596700295   -0.888272000000
 C   -2.984980537318   -2.229203700295    0.000000000000
 O   -3.146084537318   -1.019652700295    0.000000000000
 O   -1.742694537318   -2.806211700295    0.000000000000
 H   -1.108158537318   -2.067648700295    0.000000000000
RB    2.085016304383    1.649021103485    0.000000000000
