9

 C   -4.451400196882   -3.719172151335    0.000000000000
 H   -5.430327196882   -3.227384151335    0.000000000000
 H   -4.344254196882   -4.358981151335    0.888272000000
 H   -4.344254196882   -4.358981151335   -0.888272000000
 C   -3.366773196882   -2.673588151335    0.000000000000
 O   -3.527877196882   -1.464037151335    0.000000000000
 O   -2.124487196882   -3.250596151335    0.000000000000
 H   -1.489951196882   -2.512033151335    0.000000000000
RB    2.354891979860    1.963140694032    0.000000000000
