9

 C   -4.489579462838   -3.763610596439    0.000000000000
 H   -5.468506462838   -3.271822596439    0.000000000000
 H   -4.382433462838   -4.403419596439    0.888272000000
 H   -4.382433462838   -4.403419596439   -0.888272000000
 C   -3.404952462838   -2.718026596439    0.000000000000
 O   -3.566056462838   -1.508475596439    0.000000000000
 O   -2.162666462838   -3.295034596439    0.000000000000
 H   -1.528130462838   -2.556471596439    0.000000000000
RB    2.381879547408    1.994552653087    0.000000000000
