9

 C   -4.565937994751   -3.852487486648    0.000000000000
 H   -5.544864994751   -3.360699486648    0.000000000000
 H   -4.458791994751   -4.492296486648    0.888272000000
 H   -4.458791994751   -4.492296486648   -0.888272000000
 C   -3.481310994751   -2.806903486648    0.000000000000
 O   -3.642414994751   -1.597352486648    0.000000000000
 O   -2.239024994751   -3.383911486648    0.000000000000
 H   -1.604488994751   -2.645348486648    0.000000000000
RB    2.435854682503    2.057376571196    0.000000000000
