9

 C   -4.795013590490   -4.119118157272    0.000000000000
 H   -5.773940590490   -3.627330157272    0.000000000000
 H   -4.687867590490   -4.758927157272    0.888272000000
 H   -4.687867590490   -4.758927157272   -0.888272000000
 C   -3.710386590490   -3.073534157272    0.000000000000
 O   -3.871490590490   -1.863983157272    0.000000000000
 O   -2.468100590490   -3.650542157272    0.000000000000
 H   -1.833564590490   -2.911979157272    0.000000000000
RB    2.597780087789    2.245848325524    0.000000000000
