9

 C   -4.833192856446   -4.163556602376    0.000000000000
 H   -5.812119856446   -3.671768602376    0.000000000000
 H   -4.726046856446   -4.803365602376    0.888272000000
 H   -4.726046856446   -4.803365602376   -0.888272000000
 C   -3.748565856446   -3.117972602376    0.000000000000
 O   -3.909669856446   -1.908421602376    0.000000000000
 O   -2.506279856446   -3.694980602376    0.000000000000
 H   -1.871743856446   -2.956417602376    0.000000000000
RB    2.624767655337    2.277260284579    0.000000000000
