9

 C   -4.947730654315   -4.296871937688    0.000000000000
 H   -5.926657654315   -3.805083937688    0.000000000000
 H   -4.840584654315   -4.936680937688    0.888272000000
 H   -4.840584654315   -4.936680937688   -0.888272000000
 C   -3.863103654315   -3.251287937688    0.000000000000
 O   -4.024207654315   -2.041736937688    0.000000000000
 O   -2.620817654315   -3.828295937688    0.000000000000
 H   -1.986281654315   -3.089732937688    0.000000000000
RB    2.705730357980    2.371496161743    0.000000000000
