9

 C   -5.062268452185   -4.430187273001    0.000000000000
 H   -6.041195452185   -3.938399273001    0.000000000000
 H   -4.955122452185   -5.069996273001    0.888272000000
 H   -4.955122452185   -5.069996273001   -0.888272000000
 C   -3.977641452185   -3.384603273001    0.000000000000
 O   -4.138745452185   -2.175052273001    0.000000000000
 O   -2.735355452185   -3.961611273001    0.000000000000
 H   -2.100819452185   -3.223048273001    0.000000000000
RB    2.786693060623    2.465732038907    0.000000000000
