9

 C   -5.100447718141   -4.474625718105    0.000000000000
 H   -6.079374718141   -3.982837718105    0.000000000000
 H   -4.993301718141   -5.114434718105    0.888272000000
 H   -4.993301718141   -5.114434718105   -0.888272000000
 C   -4.015820718141   -3.429041718105    0.000000000000
 O   -4.176924718141   -2.219490718105    0.000000000000
 O   -2.773534718141   -4.006049718105    0.000000000000
 H   -2.138998718141   -3.267486718105    0.000000000000
RB    2.813680628171    2.497143997962    0.000000000000
