9

 C   -5.138626984097   -4.519064163209    0.000000000000
 H   -6.117553984097   -4.027276163209    0.000000000000
 H   -5.031480984097   -5.158873163209    0.888272000000
 H   -5.031480984097   -5.158873163209   -0.888272000000
 C   -4.053999984097   -3.473480163209    0.000000000000
 O   -4.215103984097   -2.263929163209    0.000000000000
 O   -2.811713984097   -4.050488163209    0.000000000000
 H   -2.177177984097   -3.311925163209    0.000000000000
RB    2.840668195718    2.528555957016    0.000000000000
