9

 C   -5.291344047923   -4.696817943625    0.000000000000
 H   -6.270271047923   -4.205029943625    0.000000000000
 H   -5.184198047923   -5.336626943625    0.888272000000
 H   -5.184198047923   -5.336626943625   -0.888272000000
 C   -4.206717047923   -3.651233943625    0.000000000000
 O   -4.367821047923   -2.441682943625    0.000000000000
 O   -2.964431047923   -4.228241943625    0.000000000000
 H   -2.329895047923   -3.489678943625    0.000000000000
RB    2.948618465909    2.654203793235    0.000000000000
