9

 C   -5.596778175574   -5.052325504458    0.000000000000
 H   -6.575705175574   -4.560537504458    0.000000000000
 H   -5.489632175574   -5.692134504458    0.888272000000
 H   -5.489632175574   -5.692134504458   -0.888272000000
 C   -4.512151175574   -4.006741504458    0.000000000000
 O   -4.673255175574   -2.797190504458    0.000000000000
 O   -3.269865175574   -4.583749504458    0.000000000000
 H   -2.635329175574   -3.845186504458    0.000000000000
RB    3.164519006291    2.905499465673    0.000000000000
