9

 C   -5.634957441531   -5.096763949562    0.000000000000
 H   -6.613884441531   -4.604975949562    0.000000000000
 H   -5.527811441531   -5.736572949562    0.888272000000
 H   -5.527811441531   -5.736572949562   -0.888272000000
 C   -4.550330441531   -4.051179949562    0.000000000000
 O   -4.711434441531   -2.841628949562    0.000000000000
 O   -3.308044441531   -4.628187949562    0.000000000000
 H   -2.673508441531   -3.889624949562    0.000000000000
RB    3.191506573838    2.936911424727    0.000000000000
