9

 C   -5.673136707487   -5.141202394666    0.000000000000
 H   -6.652063707487   -4.649414394666    0.000000000000
 H   -5.565990707487   -5.781011394666    0.888272000000
 H   -5.565990707487   -5.781011394666   -0.888272000000
 C   -4.588509707487   -4.095618394666    0.000000000000
 O   -4.749613707487   -2.886067394666    0.000000000000
 O   -3.346223707487   -4.672626394666    0.000000000000
 H   -2.711687707487   -3.934063394666    0.000000000000
RB    3.218494141386    2.968323383782    0.000000000000
