9

 C   -5.749495239400   -5.230079284874    0.000000000000
 H   -6.728422239400   -4.738291284874    0.000000000000
 H   -5.642349239400   -5.869888284874    0.888272000000
 H   -5.642349239400   -5.869888284874   -0.888272000000
 C   -4.664868239400   -4.184495284874    0.000000000000
 O   -4.825972239400   -2.974944284874    0.000000000000
 O   -3.422582239400   -4.761503284874    0.000000000000
 H   -2.788046239400   -4.022940284874    0.000000000000
RB    3.272469276482    3.031147301892    0.000000000000
