9

 C   -5.864033037269   -5.363394620186    0.000000000000
 H   -6.842960037269   -4.871606620186    0.000000000000
 H   -5.756887037269   -6.003203620186    0.888272000000
 H   -5.756887037269   -6.003203620186   -0.888272000000
 C   -4.779406037269   -4.317810620186    0.000000000000
 O   -4.940510037269   -3.108259620186    0.000000000000
 O   -3.537120037269   -4.894818620186    0.000000000000
 H   -2.902584037269   -4.156255620186    0.000000000000
RB    3.353431979125    3.125383179056    0.000000000000
