9

 C   -5.940391569182   -5.452271510394    0.000000000000
 H   -6.919318569182   -4.960483510394    0.000000000000
 H   -5.833245569182   -6.092080510394    0.888272000000
 H   -5.833245569182   -6.092080510394   -0.888272000000
 C   -4.855764569182   -4.406687510394    0.000000000000
 O   -5.016868569182   -3.197136510394    0.000000000000
 O   -3.613478569182   -4.983695510394    0.000000000000
 H   -2.978942569182   -4.245132510394    0.000000000000
RB    3.407407114220    3.188207097165    0.000000000000
