14

 N    1.242687470039    0.996135995557    0.056809104133
 C    0.157240527136    1.818894965385    0.059950975354
 H    0.348761367018    2.893951937884    0.057446376812
 C    1.160823749357   -0.423134466169    0.057826773017
 O    2.204566996675   -1.076376356230    0.055345931705
 N   -0.113014339324   -0.965274097762    0.068440007147
 C   -1.170700452137   -0.163922066887    0.065946962319
 N   -2.402693568593   -0.767721095967    0.020541139110
 H   -2.411628036914   -1.767414982478    0.190111747675
 H   -3.221271312796   -0.241292776567    0.295441263907
 C   -1.102118453703    1.277454772308    0.062463528653
 H   -1.990642169388    1.908772363552    0.052981574626
 H    2.186627592966    1.370784207999    0.053503207905
LI   -0.121242588153   -0.965516503526   -0.931526110860
