14

 N    1.242931963438    0.996143198378    0.086522001747
 C    0.157485020535    1.818902168206    0.089663872968
 H    0.349005860417    2.893959140705    0.087159274426
 C    1.161068242756   -0.423127263348    0.087539670631
 O    2.204811490074   -1.076369153409    0.085058829319
 N   -0.112769845925   -0.965266894941    0.098152904761
 C   -1.170455958738   -0.163914864066    0.095659859933
 N   -2.402449075194   -0.767713893146    0.050254036724
 H   -2.411383543515   -1.767407779657    0.219824645289
 H   -3.221026819397   -0.241285573746    0.325154161521
 C   -1.101873960304    1.277461975129    0.092176426267
 H   -1.990397675989    1.908779566373    0.082694472240
 H    2.186872086365    1.370791410820    0.083216105519
LI   -0.125112219168   -0.965630503586   -1.401796272249
