14

 N    1.247088351220    0.996265646347    0.591641261189
 C    0.161641408317    1.819024616175    0.594783132410
 H    0.353162248199    2.894081588674    0.592278533868
 C    1.165224630538   -0.423004815379    0.592658930073
 O    2.208967877856   -1.076246705440    0.590178088761
 N   -0.108613458143   -0.965144446972    0.603272164203
 C   -1.166299570956   -0.163792416097    0.600779119375
 N   -2.398292687412   -0.767591445177    0.555373296166
 H   -2.407227155733   -1.767285331688    0.724943904731
 H   -3.216870431615   -0.241163125777    0.830273420963
 C   -1.097717572522    1.277584423098    0.597295685709
 H   -1.986241288207    1.908902014342    0.587813731682
 H    2.191028474147    1.370913858789    0.588335364961
LI   -0.190895946432   -0.967568504605   -9.396389015861
