14

 N    1.243323152876    0.996154722893    0.134062637930
 C    0.157876209973    1.818913692721    0.137204509151
 H    0.349397049855    2.893970665220    0.134699910609
 C    1.161459432194   -0.423115738833    0.135080306814
 O    2.205202679512   -1.076357628894    0.132599465502
 N   -0.112378656487   -0.965255370426    0.145693540944
 C   -1.170064769300   -0.163903339551    0.143200496116
 N   -2.402057885756   -0.767702368631    0.097794672907
 H   -2.410992354077   -1.767396255142    0.267365281472
 H   -3.220635629959   -0.241274049231    0.372694797704
 C   -1.101482770866    1.277473499644    0.139717062450
 H   -1.990006486551    1.908791090888    0.130235108423
 H    2.187263275803    1.370802935335    0.130756741702
LI   -0.131303628793   -0.965812903681   -2.154228530471
