14

 N    1.243372051556    0.996156163457    0.140005217453
 C    0.157925108653    1.818915133285    0.143147088674
 H    0.349445948535    2.893972105784    0.140642490132
 C    1.161508330874   -0.423114298269    0.141022886337
 O    2.205251578192   -1.076356188330    0.138542045025
 N   -0.112329757807   -0.965253929862    0.151636120467
 C   -1.170015870620   -0.163901898987    0.149143075639
 N   -2.402008987076   -0.767700928067    0.103737252430
 H   -2.410943455397   -1.767394814578    0.273307860995
 H   -3.220586731279   -0.241272608667    0.378637377227
 C   -1.101433872186    1.277474940208    0.145659641973
 H   -1.989957587871    1.908792531452    0.136177687946
 H    2.187312174483    1.370804375899    0.136699321225
LI   -0.132077554996   -0.965835703693   -2.248282562749
