14

 N    1.243518747595    0.996160485150    0.157832956021
 C    0.158071804692    1.818919454978    0.160974827242
 H    0.349592644574    2.893976427477    0.158470228700
 C    1.161655026913   -0.423109976576    0.158850624905
 O    2.205398274231   -1.076351866637    0.156369783593
 N   -0.112183061768   -0.965249608169    0.169463859035
 C   -1.169869174581   -0.163897577294    0.166970814207
 N   -2.401862291037   -0.767696606374    0.121564990998
 H   -2.410796759358   -1.767390492885    0.291135599563
 H   -3.220440035240   -0.241268286974    0.396465115795
 C   -1.101287176147    1.277479261901    0.163487380541
 H   -1.989810891832    1.908796853145    0.154005426514
 H    2.187458870522    1.370808697592    0.154527059793
LI   -0.134399333605   -0.965904103729   -2.530444659582
