14

 N    1.243665443635    0.996164806843    0.175660694590
 C    0.158218500732    1.818923776671    0.178802565811
 H    0.349739340614    2.893980749170    0.176297967269
 C    1.161801722953   -0.423105654883    0.176678363474
 O    2.205544970271   -1.076347544944    0.174197522162
 N   -0.112036365728   -0.965245286476    0.187291597604
 C   -1.169722478541   -0.163893255601    0.184798552776
 N   -2.401715594997   -0.767692284681    0.139392729567
 H   -2.410650063318   -1.767386171192    0.308963338132
 H   -3.220293339200   -0.241263965281    0.414292854364
 C   -1.101140480107    1.277483583594    0.181315119110
 H   -1.989664195792    1.908801174838    0.171833165083
 H    2.187605566562    1.370813019285    0.172354798362
LI   -0.136721112215   -0.965972503765   -2.812606756415
