14

 N    1.243812139674    0.996169128536    0.193488433158
 C    0.158365196771    1.818928098364    0.196630304379
 H    0.349886036653    2.893985070863    0.194125705837
 C    1.161948418992   -0.423101333190    0.194506102042
 O    2.205691666310   -1.076343223251    0.192025260730
 N   -0.111889669689   -0.965240964783    0.205119336172
 C   -1.169575782502   -0.163888933908    0.202626291344
 N   -2.401568898958   -0.767687962988    0.157220468135
 H   -2.410503367279   -1.767381849499    0.326791076700
 H   -3.220146643161   -0.241259643588    0.432120592932
 C   -1.100993784068    1.277487905287    0.199142857678
 H   -1.989517499753    1.908805496531    0.189660903651
 H    2.187752262601    1.370817340978    0.190182536930
LI   -0.139042890824   -0.966040903801   -3.094768853249
