14

 N    1.244007734393    0.996174890794    0.217258751250
 C    0.158560791490    1.818933860622    0.220400622471
 H    0.350081631372    2.893990833121    0.217896023929
 C    1.162144013711   -0.423095570932    0.218276420134
 O    2.205887261029   -1.076337460993    0.215795578822
 N   -0.111694074970   -0.965235202525    0.228889654264
 C   -1.169380187783   -0.163883171650    0.226396609436
 N   -2.401373304239   -0.767682200730    0.180990786227
 H   -2.410307772560   -1.767376087241    0.350561394792
 H   -3.219951048442   -0.241253881330    0.455890911024
 C   -1.100798189349    1.277493667545    0.222913175770
 H   -1.989321905034    1.908811258789    0.213431221743
 H    2.187947857320    1.370823103236    0.213952855022
LI   -0.142138595636   -0.966132103849   -3.470984982360
