14

 N    1.244105531753    0.996177771922    0.229143910295
 C    0.158658588850    1.818936741750    0.232285781516
 H    0.350179428732    2.893993714249    0.229781182974
 C    1.162241811071   -0.423092689804    0.230161579179
 O    2.205985058389   -1.076334579865    0.227680737867
 N   -0.111596277610   -0.965232321397    0.240774813309
 C   -1.169282390423   -0.163880290522    0.238281768481
 N   -2.401275506879   -0.767679319602    0.192875945272
 H   -2.410209975200   -1.767373206113    0.362446553837
 H   -3.219853251082   -0.241251000202    0.467776070069
 C   -1.100700391989    1.277496548673    0.234798334815
 H   -1.989224107674    1.908814139917    0.225316380788
 H    2.188045654680    1.370825984364    0.225838014067
LI   -0.143686448043   -0.966177703873   -3.659093046915
