14

 N    1.244203329112    0.996180653051    0.241029069341
 C    0.158756386209    1.818939622879    0.244170940562
 H    0.350277226091    2.893996595378    0.241666342020
 C    1.162339608430   -0.423089808675    0.242046738225
 O    2.206082855748   -1.076331698736    0.239565896913
 N   -0.111498480251   -0.965229440268    0.252659972355
 C   -1.169184593064   -0.163877409393    0.250166927527
 N   -2.401177709520   -0.767676438473    0.204761104318
 H   -2.410112177841   -1.767370324984    0.374331712883
 H   -3.219755453723   -0.241248119073    0.479661229115
 C   -1.100602594630    1.277499429802    0.246683493861
 H   -1.989126310315    1.908817021046    0.237201539834
 H    2.188143452039    1.370828865493    0.237723173113
LI   -0.145234300449   -0.966223303897   -3.847201111471
