14

 N    1.244252227792    0.996182093615    0.246971648864
 C    0.158805284889    1.818941063443    0.250113520085
 H    0.350326124771    2.893998035942    0.247608921543
 C    1.162388507110   -0.423088368111    0.247989317748
 O    2.206131754428   -1.076330258172    0.245508476436
 N   -0.111449581571   -0.965227999704    0.258602551878
 C   -1.169135694384   -0.163875968829    0.256109507050
 N   -2.401128810840   -0.767674997909    0.210703683841
 H   -2.410063279161   -1.767368884420    0.380274292406
 H   -3.219706555043   -0.241246678509    0.485603808638
 C   -1.100553695950    1.277500870366    0.252626073384
 H   -1.989077411635    1.908818461610    0.243144119357
 H    2.188192350719    1.370830306057    0.243665752636
LI   -0.146008226652   -0.966246103909   -3.941255143749
