14

 N    1.244301126472    0.996183534180    0.252914228387
 C    0.158854183569    1.818942504008    0.256056099608
 H    0.350375023451    2.893999476507    0.253551501066
 C    1.162437405790   -0.423086927546    0.253931897271
 O    2.206180653108   -1.076328817607    0.251451055959
 N   -0.111400682891   -0.965226559139    0.264545131401
 C   -1.169086795704   -0.163874528264    0.262052086573
 N   -2.401079912160   -0.767673557344    0.216646263364
 H   -2.410014380481   -1.767367443855    0.386216871929
 H   -3.219657656363   -0.241245237944    0.491546388161
 C   -1.100504797270    1.277502310931    0.258568652907
 H   -1.989028512955    1.908819902175    0.249086698880
 H    2.188241249399    1.370831746622    0.249608332159
LI   -0.146782152855   -0.966268903921   -4.035309176027
