14

 N    1.244545619871    0.996190737001    0.282627126001
 C    0.159098676968    1.818949706829    0.285768997222
 H    0.350619516850    2.894006679328    0.283264398680
 C    1.162681899189   -0.423079724725    0.283644794885
 O    2.206425146507   -1.076321614786    0.281163953573
 N   -0.111156189492   -0.965219356318    0.294258029015
 C   -1.168842302305   -0.163867325443    0.291764984187
 N   -2.400835418761   -0.767666354523    0.246359160978
 H   -2.409769887082   -1.767360241034    0.415929769543
 H   -3.219413162964   -0.241238035123    0.521259285775
 C   -1.100260303871    1.277509513752    0.288281550521
 H   -1.988784019556    1.908827104996    0.278799596494
 H    2.188485742798    1.370838949443    0.279321229773
LI   -0.150651783870   -0.966382903981   -4.505579337416
