14

 N    1.244594518551    0.996192177566    0.288569705524
 C    0.159147575648    1.818951147394    0.291711576745
 H    0.350668415530    2.894008119893    0.289206978203
 C    1.162730797869   -0.423078284160    0.289587374408
 O    2.206474045187   -1.076320174221    0.287106533096
 N   -0.111107290812   -0.965217915753    0.300200608538
 C   -1.168793403625   -0.163865884878    0.297707563710
 N   -2.400786520081   -0.767664913958    0.252301740501
 H   -2.409720988402   -1.767358800469    0.421872349066
 H   -3.219364264284   -0.241236594558    0.527201865298
 C   -1.100211405191    1.277510954317    0.294224130044
 H   -1.988735120876    1.908828545561    0.284742176017
 H    2.188534641478    1.370840390008    0.285263809296
LI   -0.151425710074   -0.966405703993   -4.599633369693
