14

 N    1.244692315910    0.996195058694    0.300454864569
 C    0.159245373007    1.818954028522    0.303596735790
 H    0.350766212889    2.894011001021    0.301092137248
 C    1.162828595228   -0.423075403032    0.301472533453
 O    2.206571842546   -1.076317293093    0.298991692141
 N   -0.111009493453   -0.965215034625    0.312085767583
 C   -1.168695606266   -0.163863003750    0.309592722755
 N   -2.400688722722   -0.767662032830    0.264186899546
 H   -2.409623191043   -1.767355919341    0.433757508111
 H   -3.219266466925   -0.241233713430    0.539087024343
 C   -1.100113607832    1.277513835445    0.306109289089
 H   -1.988637323517    1.908831426689    0.296627335062
 H    2.188632438837    1.370843271136    0.297148968341
LI   -0.152973562480   -0.966451304017   -4.787741434249
