14

 N    1.244741214590    0.996196499259    0.306397444092
 C    0.159294271687    1.818955469087    0.309539315313
 H    0.350815111569    2.894012441586    0.307034716771
 C    1.162877493908   -0.423073962467    0.307415112976
 O    2.206620741226   -1.076315852528    0.304934271664
 N   -0.110960594773   -0.965213594060    0.318028347106
 C   -1.168646707586   -0.163861563185    0.315535302278
 N   -2.400639824042   -0.767660592265    0.270129479069
 H   -2.409574292363   -1.767354478776    0.439700087634
 H   -3.219217568245   -0.241232272865    0.545029603866
 C   -1.100064709152    1.277515276010    0.312051868612
 H   -1.988588424837    1.908832867254    0.302569914585
 H    2.188681337517    1.370844711701    0.303091547864
LI   -0.153747488683   -0.966474104029   -4.881795466527
