14

 N    1.244936809309    0.996202261516    0.330167762184
 C    0.159489866406    1.818961231344    0.333309633405
 H    0.351010706288    2.894018203843    0.330805034863
 C    1.163073088627   -0.423068200210    0.331185431068
 O    2.206816335945   -1.076310090271    0.328704589756
 N   -0.110765000054   -0.965207831803    0.341798665198
 C   -1.168451112867   -0.163855800928    0.339305620370
 N   -2.400444229323   -0.767654830008    0.293899797161
 H   -2.409378697644   -1.767348716519    0.463470405726
 H   -3.219021973526   -0.241226510608    0.568799921958
 C   -1.099869114433    1.277521038267    0.335822186704
 H   -1.988392830118    1.908838629511    0.326340232677
 H    2.188876932236    1.370850473958    0.326861865956
LI   -0.156843193495   -0.966565304077   -5.258011595638
