14

 N    1.245034606669    0.996205142645    0.342052921229
 C    0.159587663766    1.818964112473    0.345194792450
 H    0.351108503648    2.894021084972    0.342690193908
 C    1.163170885987   -0.423065319081    0.343070590113
 O    2.206914133305   -1.076307209142    0.340589748801
 N   -0.110667202694   -0.965204950674    0.353683824243
 C   -1.168353315507   -0.163852919799    0.351190779415
 N   -2.400346431963   -0.767651948879    0.305784956206
 H   -2.409280900284   -1.767345835390    0.475355564771
 H   -3.218924176166   -0.241223629479    0.580685081003
 C   -1.099771317073    1.277523919396    0.347707345749
 H   -1.988295032758    1.908841510640    0.338225391722
 H    2.188974729596    1.370853355087    0.338747025001
LI   -0.158391045901   -0.966610904101   -5.446119660193
