14

 N    1.245083505348    0.996206583209    0.347995500752
 C    0.159636562445    1.818965553037    0.351137371973
 H    0.351157402327    2.894022525536    0.348632773431
 C    1.163219784666   -0.423063878517    0.349013169636
 O    2.206963031984   -1.076305768578    0.346532328324
 N   -0.110618304015   -0.965203510110    0.359626403766
 C   -1.168304416828   -0.163851479235    0.357133358938
 N   -2.400297533284   -0.767650508315    0.311727535729
 H   -2.409232001605   -1.767344394826    0.481298144294
 H   -3.218875277487   -0.241222188915    0.586627660526
 C   -1.099722418394    1.277525359960    0.353649925272
 H   -1.988246134079    1.908842951204    0.344167971245
 H    2.189023628275    1.370854795651    0.344689604524
LI   -0.159164972105   -0.966633704113   -5.540173692471
