14

 N    1.245132404028    0.996208023773    0.353938080275
 C    0.159685461125    1.818966993601    0.357079951496
 H    0.351206301007    2.894023966100    0.354575352954
 C    1.163268683346   -0.423062437953    0.354955749159
 O    2.207011930664   -1.076304328014    0.352474907847
 N   -0.110569405335   -0.965202069546    0.365568983289
 C   -1.168255518148   -0.163850038671    0.363075938461
 N   -2.400248634604   -0.767649067751    0.317670115252
 H   -2.409183102925   -1.767342954262    0.487240723817
 H   -3.218826378807   -0.241220748351    0.592570240049
 C   -1.099673519714    1.277526800524    0.359592504795
 H   -1.988197235399    1.908844391768    0.350110550768
 H    2.189072526955    1.370856236215    0.350632184047
LI   -0.159938898308   -0.966656504125   -5.634227724749
