14

 N    1.245181302708    0.996209464338    0.359880659798
 C    0.159734359805    1.818968434166    0.363022531019
 H    0.351255199687    2.894025406665    0.360517932477
 C    1.163317582026   -0.423060997388    0.360898328682
 O    2.207060829344   -1.076302887449    0.358417487370
 N   -0.110520506655   -0.965200628981    0.371511562812
 C   -1.168206619468   -0.163848598106    0.369018517984
 N   -2.400199735924   -0.767647627186    0.323612694775
 H   -2.409134204245   -1.767341513697    0.493183303340
 H   -3.218777480127   -0.241219307786    0.598512819572
 C   -1.099624621034    1.277528241089    0.365535084318
 H   -1.988148336719    1.908845832333    0.356053130291
 H    2.189121425635    1.370857676780    0.356574763570
LI   -0.160712824511   -0.966679304137   -5.728281757027
