14

 N    1.245230201388    0.996210904902    0.365823239321
 C    0.159783258485    1.818969874730    0.368965110542
 H    0.351304098367    2.894026847229    0.366460512000
 C    1.163366480706   -0.423059556824    0.366840908205
 O    2.207109728024   -1.076301446885    0.364360066893
 N   -0.110471607975   -0.965199188417    0.377454142335
 C   -1.168157720788   -0.163847157542    0.374961097507
 N   -2.400150837244   -0.767646186622    0.329555274298
 H   -2.409085305565   -1.767340073133    0.499125882863
 H   -3.218728581447   -0.241217867222    0.604455399095
 C   -1.099575722354    1.277529681653    0.371477663841
 H   -1.988099438039    1.908847272897    0.361995709814
 H    2.189170324315    1.370859117344    0.362517343093
LI   -0.161486750714   -0.966702104149   -5.822335789305
