14

 N    1.245279100068    0.996212345466    0.371765818843
 C    0.159832157165    1.818971315294    0.374907690064
 H    0.351352997047    2.894028287793    0.372403091522
 C    1.163415379386   -0.423058116260    0.372783487727
 O    2.207158626704   -1.076300006321    0.370302646415
 N   -0.110422709295   -0.965197747853    0.383396721857
 C   -1.168108822108   -0.163845716978    0.380903677029
 N   -2.400101938564   -0.767644746058    0.335497853820
 H   -2.409036406885   -1.767338632569    0.505068462385
 H   -3.218679682767   -0.241216426658    0.610397978617
 C   -1.099526823674    1.277531122217    0.377420243363
 H   -1.988050539359    1.908848713461    0.367938289336
 H    2.189219222995    1.370860557908    0.368459922615
LI   -0.162260676917   -0.966724904161   -5.916389821582
