14

 N    1.245572492146    0.996220988852    0.407421295981
 C    0.160125549243    1.818979958680    0.410563167202
 H    0.351646389125    2.894036931179    0.408058568660
 C    1.163708771464   -0.423049472874    0.408438964865
 O    2.207452018782   -1.076291362935    0.405958123553
 N   -0.110129317217   -0.965189104467    0.419052198995
 C   -1.167815430030   -0.163837073592    0.416559154167
 N   -2.399808546486   -0.767636102672    0.371153330958
 H   -2.408743014807   -1.767329989183    0.540723939523
 H   -3.218386290689   -0.241207783272    0.646053455755
 C   -1.099233431596    1.277539765603    0.413075720501
 H   -1.987757147281    1.908857356847    0.403593766474
 H    2.189512615073    1.370869201294    0.404115399753
LI   -0.166904234136   -0.966861704233   -6.480714015249
