14

 N    1.245621390826    0.996222429417    0.413363875503
 C    0.160174447923    1.818981399245    0.416505746724
 H    0.351695287805    2.894038371744    0.414001148182
 C    1.163757670144   -0.423048032309    0.414381544387
 O    2.207500917462   -1.076289922370    0.411900703075
 N   -0.110080418537   -0.965187663902    0.424994778517
 C   -1.167766531350   -0.163835633027    0.422501733689
 N   -2.399759647806   -0.767634662107    0.377095910480
 H   -2.408694116127   -1.767328548618    0.546666519045
 H   -3.218337392009   -0.241206342707    0.651996035277
 C   -1.099184532916    1.277541206168    0.419018300023
 H   -1.987708248601    1.908858797412    0.409536345996
 H    2.189561513753    1.370870641859    0.410057979275
LI   -0.167678160339   -0.966884504245   -6.574768047527
