14

 N    1.245865884225    0.996229632238    0.443076773118
 C    0.160418941322    1.818988602066    0.446218644339
 H    0.351939781204    2.894045574565    0.443714045797
 C    1.164002163543   -0.423040829488    0.444094442002
 O    2.207745410861   -1.076282719549    0.441613600690
 N   -0.109835925138   -0.965180461081    0.454707676132
 C   -1.167522037951   -0.163828430206    0.452214631304
 N   -2.399515154407   -0.767627459286    0.406808808095
 H   -2.408449622728   -1.767321345797    0.576379416660
 H   -3.218092898610   -0.241199139886    0.681708932892
 C   -1.098940039517    1.277548408989    0.448731197638
 H   -1.987463755202    1.908866000233    0.439249243611
 H    2.189806007152    1.370877844680    0.439770876890
LI   -0.171547791354   -0.966998504305   -7.045038208916
