14

 N    1.245914782905    0.996231072803    0.449019352640
 C    0.160467840002    1.818990042631    0.452161223861
 H    0.351988679884    2.894047015130    0.449656625319
 C    1.164051062223   -0.423039388923    0.450037021524
 O    2.207794309541   -1.076281278984    0.447556180212
 N   -0.109787026458   -0.965179020516    0.460650255654
 C   -1.167473139271   -0.163826989641    0.458157210826
 N   -2.399466255727   -0.767626018721    0.412751387617
 H   -2.408400724048   -1.767319905232    0.582321996182
 H   -3.218043999930   -0.241197699321    0.687651512414
 C   -1.098891140837    1.277549849554    0.454673777160
 H   -1.987414856522    1.908867440798    0.445191823133
 H    2.189854905832    1.370879285245    0.445713456412
LI   -0.172321717557   -0.967021304317   -7.139092241194
