14

 N    1.246110377624    0.996236835060    0.472789670732
 C    0.160663434721    1.818995804888    0.475931541953
 H    0.352184274603    2.894052777387    0.473426943411
 C    1.164246656942   -0.423033626666    0.473807339616
 O    2.207989904260   -1.076275516727    0.471326498304
 N   -0.109591431739   -0.965173258259    0.484420573746
 C   -1.167277544552   -0.163821227384    0.481927528918
 N   -2.399270661008   -0.767620256464    0.436521705709
 H   -2.408205129329   -1.767314142975    0.606092314274
 H   -3.217848405211   -0.241191937064    0.711421830506
 C   -1.098695546118    1.277555611811    0.478444095252
 H   -1.987219261803    1.908873203055    0.468962141225
 H    2.190050500551    1.370885047502    0.469483774504
LI   -0.175417422370   -0.967112504365   -7.515308370305
