14

 N    1.246257073663    0.996241156753    0.490617409300
 C    0.160810130760    1.819000126581    0.493759280521
 H    0.352330970642    2.894057099080    0.491254681979
 C    1.164393352981   -0.423029304973    0.491635078184
 O    2.208136600299   -1.076271195034    0.489154236872
 N   -0.109444735700   -0.965168936566    0.502248312314
 C   -1.167130848513   -0.163816905691    0.499755267486
 N   -2.399123964969   -0.767615934771    0.454349444277
 H   -2.408058433290   -1.767309821282    0.623920052842
 H   -3.217701709172   -0.241187615371    0.729249569074
 C   -1.098548850079    1.277559933504    0.496271833820
 H   -1.987072565764    1.908877524748    0.486789879793
 H    2.190197196590    1.370889369195    0.487311513072
LI   -0.177739200979   -0.967180904401   -7.797470467138
