14

 N    1.246354871023    0.996244037882    0.502502568346
 C    0.160907928120    1.819003007710    0.505644439567
 H    0.352428768002    2.894059980209    0.503139841025
 C    1.164491150341   -0.423026423844    0.503520237230
 O    2.208234397659   -1.076268313905    0.501039395918
 N   -0.109346938340   -0.965166055437    0.514133471360
 C   -1.167033051153   -0.163814024562    0.511640426532
 N   -2.399026167609   -0.767613053642    0.466234603323
 H   -2.407960635930   -1.767306940153    0.635805211888
 H   -3.217603911812   -0.241184734242    0.741134728120
 C   -1.098451052719    1.277562814633    0.508156992866
 H   -1.986974768404    1.908880405877    0.498675038839
 H    2.190294993950    1.370892250324    0.499196672118
LI   -0.179287053385   -0.967226504425   -7.985578531694
