14

 N    1.246403769703    0.996245478446    0.508445147869
 C    0.160956826800    1.819004448274    0.511587019090
 H    0.352477666682    2.894061420773    0.509082420548
 C    1.164540049021   -0.423024983280    0.509462816753
 O    2.208283296339   -1.076266873341    0.506981975441
 N   -0.109298039660   -0.965164614873    0.520076050883
 C   -1.166984152473   -0.163812583998    0.517583006055
 N   -2.398977268929   -0.767611613078    0.472177182846
 H   -2.407911737250   -1.767305499589    0.641747791411
 H   -3.217555013132   -0.241183293678    0.747077307643
 C   -1.098402154039    1.277564255197    0.514099572389
 H   -1.986925869724    1.908881846441    0.504617618362
 H    2.190343892630    1.370893690888    0.505139251641
LI   -0.180060979588   -0.967249304437   -8.079632563972
