14

 N    1.246697161781    0.996254121832    0.544100625006
 C    0.161250218878    1.819013091660    0.547242496227
 H    0.352771058760    2.894070064159    0.544737897685
 C    1.164833441099   -0.423016339894    0.545118293890
 O    2.208576688417   -1.076258229955    0.542637452578
 N   -0.109004647582   -0.965155971487    0.555731528020
 C   -1.166690760395   -0.163803940612    0.553238483192
 N   -2.398683876851   -0.767602969692    0.507832659983
 H   -2.407618345172   -1.767296856203    0.677403268548
 H   -3.217261621054   -0.241174650292    0.782732784780
 C   -1.098108761961    1.277572898583    0.549755049526
 H   -1.986632477646    1.908890489827    0.540273095499
 H    2.190637284708    1.370902334274    0.540794728778
LI   -0.184704536807   -0.967386104509   -8.643956757638
