13

 N   -0.208504970722    1.974912432469   -0.000169501260
 C    0.965234612361    2.702284623979   -0.000481980430
 H    0.847517752298    3.787603083023   -0.000597827989
 C   -0.254280943802    0.581700640602   -0.000554555829
 O   -1.305869112358   -0.052402673239   -0.000211188725
 N    1.006159597339   -0.001769415530   -0.000137652507
 H    1.015975394462   -1.020054527396   -0.000164956602
 C    2.267413886572    0.634286071433   -0.000120557671
 O    3.301106814640   -0.034977762983   -0.000866223335
 C    2.185935094812    2.094833132823   -0.000620455118
 H    3.109335233114    2.671893391689   -0.000961131895
 H   -1.112242146670    2.434566553829   -0.000371152860
RB   -1.283045629361   -1.252185378455    0.000529682190
