13

 N   -0.209325014039    2.018020392327   -0.000196120609
 C    0.964414569044    2.745392583837   -0.000508599779
 H    0.846697708981    3.830711042881   -0.000624447338
 C   -0.255100987119    0.624808600460   -0.000581175178
 O   -1.306689155675   -0.009294713381   -0.000237808074
 N    1.005339554022    0.041338544328   -0.000164271856
 H    1.015155351145   -0.976946567538   -0.000191575951
 C    2.266593843255    0.677394031291   -0.000147177020
 O    3.300286771323    0.008130196875   -0.000892842684
 C    2.185115051495    2.137941092681   -0.000647074467
 H    3.108515189797    2.715001351547   -0.000987751244
 H   -1.113062189987    2.477674513687   -0.000397772209
RB   -1.281963715761   -1.309059310698    0.000564802085
