13

 N   -0.215885360572    2.362884071193   -0.000409075395
 C    0.957854222511    3.090256262703   -0.000721554565
 H    0.840137362448    4.175574721747   -0.000837402124
 C   -0.261661333652    0.969672279326   -0.000794129964
 O   -1.313249502208    0.335568965485   -0.000450762860
 N    0.998779207489    0.386202223194   -0.000377226642
 H    1.008595004612   -0.632082888672   -0.000404530737
 C    2.260033496722    1.022257710157   -0.000360131806
 O    3.293726424790    0.352993875741   -0.001105797470
 C    2.178554704962    2.482804771547   -0.000860029253
 H    3.101954843264    3.059865030413   -0.001200706030
 H   -1.119622536520    2.822538192553   -0.000610726995
RB   -1.273308406963   -1.764050768642    0.000845761243
