13

 N   -0.228186010322    3.009503469066   -0.000808365619
 C    0.945553572761    3.736875660576   -0.001120844789
 H    0.827836712698    4.822194119620   -0.001236692348
 C   -0.273961983402    1.616291677199   -0.001193420188
 O   -1.325550151958    0.982188363358   -0.000850053084
 N    0.986478557739    1.032821621067   -0.000776516866
 H    0.996294354862    0.014536509201   -0.000803820961
 C    2.247732846972    1.668877108030   -0.000759422030
 O    3.281425775040    0.999613273614   -0.001505087694
 C    2.166254055212    3.129424169420   -0.001259319477
 H    3.089654193514    3.706484428286   -0.001599996254
 H   -1.131923186270    3.469157590426   -0.001010017219
RB   -1.257079702967   -2.617159752288    0.001372559663
