13

 N   -0.229826096956    3.095719388783   -0.000861604316
 C    0.943913486127    3.823091580293   -0.001174083486
 H    0.826196626064    4.908410039337   -0.001289931045
 C   -0.275602070036    1.702507596916   -0.001246658885
 O   -1.327190238592    1.068404283075   -0.000903291781
 N    0.984838471105    1.119037540784   -0.000829755563
 H    0.994654268228    0.100752428918   -0.000857059658
 C    2.246092760338    1.755093027747   -0.000812660727
 O    3.279785688406    1.085829193331   -0.001558326391
 C    2.164613968578    3.215640089137   -0.001312558174
 H    3.088014106880    3.792700348003   -0.001653234951
 H   -1.133563272904    3.555373510143   -0.001063255916
RB   -1.254915875767   -2.730907616774    0.001442799452
