13

 N   -0.232286226906    3.225043268357   -0.000941462360
 C    0.941453356177    3.952415459867   -0.001253941530
 H    0.823736496114    5.037733918911   -0.001369789089
 C   -0.278062199986    1.831831476490   -0.001326516929
 O   -1.329650368542    1.197728162649   -0.000983149825
 N    0.982378341155    1.248361420358   -0.000909613607
 H    0.992194138278    0.230076308492   -0.000936917702
 C    2.243632630388    1.884416907321   -0.000892518771
 O    3.277325558456    1.215153072905   -0.001638184435
 C    2.162153838628    3.344963968711   -0.001392416218
 H    3.085553976930    3.922024227577   -0.001733092995
 H   -1.136023402854    3.684697389717   -0.001143113960
RB   -1.251670134968   -2.901529413503    0.001548159136
