13

 N   -0.233106270222    3.268151228216   -0.000968081709
 C    0.940633312861    3.995523419726   -0.001280560879
 H    0.822916452798    5.080841878770   -0.001396408438
 C   -0.278882243302    1.874939436349   -0.001353136278
 O   -1.330470411858    1.240836122508   -0.001009769174
 N    0.981558297839    1.291469380217   -0.000936232956
 H    0.991374094962    0.273184268351   -0.000963537051
 C    2.242812587072    1.927524867180   -0.000919138120
 O    3.276505515140    1.258261032764   -0.001664803784
 C    2.161333795312    3.388071928570   -0.001419035567
 H    3.084733933614    3.965132187436   -0.001759712344
 H   -1.136843446170    3.727805349576   -0.001169733309
RB   -1.250588221368   -2.958403345746    0.001583279031
