13

 N   -0.233926313539    3.311259188074   -0.000994701057
 C    0.939813269544    4.038631379584   -0.001307180227
 H    0.822096409481    5.123949838628   -0.001423027786
 C   -0.279702286619    1.918047396207   -0.001379755626
 O   -1.331290455175    1.283944082366   -0.001036388522
 N    0.980738254522    1.334577340075   -0.000962852304
 H    0.990554051645    0.316292228209   -0.000990156399
 C    2.241992543755    1.970632827038   -0.000945757468
 O    3.275685471823    1.301368992622   -0.001691423132
 C    2.160513751995    3.431179888428   -0.001445654915
 H    3.083913890297    4.008240147294   -0.001786331692
 H   -1.137663489487    3.770913309434   -0.001196352657
RB   -1.249506307768   -3.015277277990    0.001618398926
