13

 N   -0.236386443489    3.440583067649   -0.001074559102
 C    0.937353139594    4.167955259159   -0.001387038272
 H    0.819636279531    5.253273718203   -0.001502885831
 C   -0.282162416569    2.047371275782   -0.001459613671
 O   -1.333750585125    1.413267961941   -0.001116246567
 N    0.978278124572    1.463901219650   -0.001042710349
 H    0.988093921695    0.445616107784   -0.001070014444
 C    2.239532413805    2.099956706613   -0.001025615513
 O    3.273225341873    1.430692872197   -0.001771281177
 C    2.158053622045    3.560503768003   -0.001525512960
 H    3.081453760347    4.137564026869   -0.001866189737
 H   -1.140123619437    3.900237189009   -0.001276210702
RB   -1.246260566969   -3.185899074719    0.001723758610
