13

 N   -0.238846573439    3.569906947223   -0.001154417147
 C    0.934893009644    4.297279138733   -0.001466896317
 H    0.817176149581    5.382597597777   -0.001582743876
 C   -0.284622546519    2.176695155356   -0.001539471716
 O   -1.336210715075    1.542591841515   -0.001196104612
 N    0.975817994622    1.593225099224   -0.001122568394
 H    0.985633791745    0.574939987358   -0.001149872489
 C    2.237072283855    2.229280586187   -0.001105473558
 O    3.270765211923    1.560016751771   -0.001851139222
 C    2.155593492095    3.689827647577   -0.001605371005
 H    3.078993630397    4.266887906443   -0.001946047782
 H   -1.142583749387    4.029561068583   -0.001356068747
RB   -1.243014826170   -3.356520871448    0.001829118294
