13

 N   -0.240486660072    3.656122866940   -0.001207655843
 C    0.933252923011    4.383495058450   -0.001520135013
 H    0.815536062948    5.468813517494   -0.001635982572
 C   -0.286262633152    2.262911075073   -0.001592710412
 O   -1.337850801708    1.628807761232   -0.001249343308
 N    0.974177907989    1.679441018941   -0.001175807090
 H    0.983993705112    0.661155907075   -0.001203111185
 C    2.235432197222    2.315496505904   -0.001158712254
 O    3.269125125290    1.646232671488   -0.001904377918
 C    2.153953405462    3.776043567294   -0.001658609701
 H    3.077353543764    4.353103826160   -0.001999286478
 H   -1.144223836020    4.115776988300   -0.001409307443
RB   -1.240850998970   -3.470268735934    0.001899358083
