13

 N   -0.241306703389    3.699230826798   -0.001234275191
 C    0.932432879694    4.426603018308   -0.001546754361
 H    0.814716019631    5.511921477352   -0.001662601920
 C   -0.287082676469    2.306019034931   -0.001619329760
 O   -1.338670845025    1.671915721090   -0.001275962656
 N    0.973357864672    1.722548978799   -0.001202426438
 H    0.983173661795    0.704263866933   -0.001229730533
 C    2.234612153905    2.358604465762   -0.001185331602
 O    3.268305081973    1.689340631346   -0.001930997266
 C    2.153133362145    3.819151527152   -0.001685229049
 H    3.076533500447    4.396211786018   -0.002025905826
 H   -1.145043879337    4.158884948158   -0.001435926791
RB   -1.239769085370   -3.527142668177    0.001934477978
