13

 N   -0.245406919973    3.914770626089   -0.001367371933
 C    0.928332663110    4.642142817599   -0.001679851103
 H    0.810615803047    5.727461276643   -0.001795698662
 C   -0.291182893053    2.521558834222   -0.001752426502
 O   -1.342771061609    1.887455520381   -0.001409059398
 N    0.969257648088    1.938088778090   -0.001335523180
 H    0.979073445211    0.919803666224   -0.001362827275
 C    2.230511937321    2.574144265053   -0.001318428344
 O    3.264204865389    1.904880430637   -0.002064094008
 C    2.149033145561    4.034691326443   -0.001818325791
 H    3.072433283863    4.611751585309   -0.002159002568
 H   -1.149144095921    4.374424747449   -0.001569023533
RB   -1.234359517372   -3.811512329392    0.002110077451
