13

 N   -0.246226963289    3.957878585947   -0.001393991281
 C    0.927512619794    4.685250777457   -0.001706470451
 H    0.809795759731    5.770569236501   -0.001822318010
 C   -0.292002936369    2.564666794080   -0.001779045850
 O   -1.343591104925    1.930563480239   -0.001435678746
 N    0.968437604772    1.981196737948   -0.001362142528
 H    0.978253401895    0.962911626082   -0.001389446623
 C    2.229691894005    2.617252224911   -0.001345047692
 O    3.263384822073    1.947988390495   -0.002090713356
 C    2.148213102245    4.077799286301   -0.001844945139
 H    3.071613240547    4.654859545167   -0.002185621916
 H   -1.149964139237    4.417532707307   -0.001595642881
RB   -1.233277603772   -3.868386261636    0.002145197346
