13

 N   -0.251147223189    4.216526345097   -0.001553707371
 C    0.922592359894    4.943898536607   -0.001866186541
 H    0.804875499831    6.029216995651   -0.001982034100
 C   -0.296923196269    2.823314553230   -0.001938761940
 O   -1.348511364825    2.189211239389   -0.001595394836
 N    0.963517344872    2.239844497098   -0.001521858618
 H    0.973333141995    1.221559385232   -0.001549162713
 C    2.224771634105    2.875899984061   -0.001504763782
 O    3.258464562173    2.206636149645   -0.002250429446
 C    2.143292842345    4.336447045451   -0.002004661229
 H    3.066692980647    4.913507304317   -0.002345338006
 H   -1.154884399137    4.676180466457   -0.001755358971
RB   -1.226786122173   -4.209629855094    0.002355916714
