13

 N   -0.251967266506    4.259634304955   -0.001580326719
 C    0.921772316577    4.987006496465   -0.001892805889
 H    0.804055456514    6.072324955509   -0.002008653448
 C   -0.297743239586    2.866422513088   -0.001965381288
 O   -1.349331408142    2.232319199247   -0.001622014184
 N    0.962697301555    2.282952456956   -0.001548477966
 H    0.972513098678    1.264667345090   -0.001575782061
 C    2.223951590788    2.919007943919   -0.001531383130
 O    3.257644518856    2.249744109503   -0.002277048794
 C    2.142472799028    4.379555005309   -0.002031280577
 H    3.065872937330    4.956615264175   -0.002371957354
 H   -1.155704442454    4.719288426315   -0.001781978319
RB   -1.225704208573   -4.266503787337    0.002391036609
