13

 N   -0.253607353139    4.345850224671   -0.001633565416
 C    0.920132229944    5.073222416181   -0.001946044586
 H    0.802415369881    6.158540875225   -0.002061892145
 C   -0.299383326219    2.952638432804   -0.002018619985
 O   -1.350971494775    2.318535118963   -0.001675252881
 N    0.961057214922    2.369168376672   -0.001601716663
 H    0.970873012045    1.350883264806   -0.001629020758
 C    2.222311504155    3.005223863635   -0.001584621827
 O    3.256004432223    2.335960029219   -0.002330287491
 C    2.140832712395    4.465770925025   -0.002084519274
 H    3.064232850697    5.042831183891   -0.002425196051
 H   -1.157344529087    4.805504346031   -0.001835217016
RB   -1.223540381374   -4.380251651823    0.002461276398
