13

 N   -0.254427396456    4.388958184530   -0.001660184764
 C    0.919312186627    5.116330376040   -0.001972663934
 H    0.801595326564    6.201648835084   -0.002088511493
 C   -0.300203369536    2.995746392663   -0.002045239333
 O   -1.351791538092    2.361643078822   -0.001701872229
 N    0.960237171605    2.412276336531   -0.001628336011
 H    0.970052968728    1.393991224665   -0.001655640106
 C    2.221491460838    3.048331823494   -0.001611241175
 O    3.255184388906    2.379067989078   -0.002356906839
 C    2.140012669078    4.508878884884   -0.002111138622
 H    3.063412807380    5.085939143750   -0.002451815399
 H   -1.158164572404    4.848612305890   -0.001861836364
RB   -1.222458467774   -4.437125584066    0.002496396293
