13

 N   -0.256067483089    4.475174104246   -0.001713423460
 C    0.917672099994    5.202546295756   -0.002025902630
 H    0.799955239931    6.287864754800   -0.002141750189
 C   -0.301843456169    3.081962312379   -0.002098478029
 O   -1.353431624725    2.447858998538   -0.001755110925
 N    0.958597084972    2.498492256247   -0.001681574707
 H    0.968412882095    1.480207144381   -0.001708878802
 C    2.219851374205    3.134547743210   -0.001664479871
 O    3.253544302273    2.465283908794   -0.002410145535
 C    2.138372582445    4.595094804600   -0.002164377318
 H    3.061772720747    5.172155063466   -0.002505054095
 H   -1.159804659037    4.934828225606   -0.001915075060
RB   -1.220294640575   -4.550873448552    0.002566636082
