13

 N   -0.256887526406    4.518282064104   -0.001740042809
 C    0.916852056677    5.245654255614   -0.002052521979
 H    0.799135196614    6.330972714658   -0.002168369538
 C   -0.302663499486    3.125070272237   -0.002125097378
 O   -1.354251668042    2.490966958396   -0.001781730274
 N    0.957777041655    2.541600216105   -0.001708194056
 H    0.967592838778    1.523315104239   -0.001735498151
 C    2.219031330888    3.177655703068   -0.001691099220
 O    3.252724258956    2.508391868652   -0.002436764884
 C    2.137552539128    4.638202764458   -0.002190996667
 H    3.060952677430    5.215263023324   -0.002531673444
 H   -1.160624702354    4.977936185464   -0.001941694409
RB   -1.219212726975   -4.607747380795    0.002601755977
