13

 N   -0.258527613039    4.604497983821   -0.001793281505
 C    0.915211970044    5.331870175331   -0.002105760675
 H    0.797495109981    6.417188634375   -0.002221608234
 C   -0.304303586119    3.211286191954   -0.002178336074
 O   -1.355891754675    2.577182878113   -0.001834968970
 N    0.956136955022    2.627816135822   -0.001761432752
 H    0.965952752145    1.609531023956   -0.001788736847
 C    2.217391244255    3.263871622785   -0.001744337916
 O    3.251084172323    2.594607788369   -0.002490003580
 C    2.135912452495    4.724418684175   -0.002244235363
 H    3.059312590797    5.301478943041   -0.002584912140
 H   -1.162264788987    5.064152105181   -0.001994933105
RB   -1.217048899775   -4.721495245281    0.002671995766
