13

 N   -0.260167699673    4.690713903537   -0.001846520202
 C    0.913571883410    5.418086095047   -0.002158999372
 H    0.795855023347    6.503404554091   -0.002274846931
 C   -0.305943672753    3.297502111670   -0.002231574771
 O   -1.357531841309    2.663398797829   -0.001888207667
 N    0.954496868388    2.714032055538   -0.001814671449
 H    0.964312665511    1.695746943672   -0.001841975544
 C    2.215751157621    3.350087542501   -0.001797576613
 O    3.249444085689    2.680823708085   -0.002543242277
 C    2.134272365861    4.810634603891   -0.002297474060
 H    3.057672504163    5.387694862757   -0.002638150837
 H   -1.163904875621    5.150368024897   -0.002048171802
RB   -1.214885072576   -4.835243109768    0.002742235556
