13

 N   -0.261807786306    4.776929823254   -0.001899758898
 C    0.911931796777    5.504302014764   -0.002212238068
 H    0.794214936714    6.589620473808   -0.002328085627
 C   -0.307583759386    3.383718031387   -0.002284813467
 O   -1.359171927942    2.749614717546   -0.001941446363
 N    0.952856781755    2.800247975255   -0.001867910145
 H    0.962672578878    1.781962863389   -0.001895214240
 C    2.214111070988    3.436303462218   -0.001850815309
 O    3.247803999056    2.767039627802   -0.002596480973
 C    2.132632279228    4.896850523608   -0.002350712756
 H    3.056032417530    5.473910782474   -0.002691389533
 H   -1.165544962254    5.236583944614   -0.002101410498
RB   -1.212721245376   -4.948990974254    0.002812475345
