13

 N   -0.264267916256    4.906253702828   -0.001979616943
 C    0.909471666827    5.633625894338   -0.002292096113
 H    0.791754806764    6.718944353382   -0.002407943672
 C   -0.310043889336    3.513041910961   -0.002364671512
 O   -1.361632057892    2.878938597120   -0.002021304408
 N    0.950396651805    2.929571854829   -0.001947768190
 H    0.960212448928    1.911286742963   -0.001975072285
 C    2.211650941038    3.565627341792   -0.001930673354
 O    3.245343869106    2.896363507376   -0.002676339018
 C    2.130172149278    5.026174403182   -0.002430570801
 H    3.053572287580    5.603234662048   -0.002771247578
 H   -1.168005092204    5.365907824188   -0.002181268543
RB   -1.209475504577   -5.119612770983    0.002917835029
