13

 N   -0.267548089523    5.078685542261   -0.002086094336
 C    0.906191493560    5.806057733771   -0.002398573506
 H    0.788474633497    6.891376192815   -0.002514421065
 C   -0.313324062603    3.685473750394   -0.002471148905
 O   -1.364912231159    3.051370436553   -0.002127781801
 N    0.947116478538    3.102003694262   -0.002054245583
 H    0.956932275661    2.083718582396   -0.002081549678
 C    2.208370767771    3.738059181225   -0.002037150747
 O    3.242063695839    3.068795346809   -0.002782816411
 C    2.126891976011    5.198606242615   -0.002537048194
 H    3.050292114313    5.775666501481   -0.002877724971
 H   -1.171285265471    5.538339663621   -0.002287745936
RB   -1.205147850178   -5.347108499955    0.003058314608
