13

 N   -0.270008219473    5.208009421836   -0.002165952381
 C    0.903731363610    5.935381613346   -0.002478431551
 H    0.786014503547    7.020700072390   -0.002594279110
 C   -0.315784192553    3.814797629969   -0.002551006950
 O   -1.367372361109    3.180694316128   -0.002207639846
 N    0.944656348588    3.231327573837   -0.002134103628
 H    0.954472145711    2.213042461971   -0.002161407723
 C    2.205910637821    3.867383060800   -0.002117008792
 O    3.239603565889    3.198119226384   -0.002862674456
 C    2.124431846061    5.327930122190   -0.002616906239
 H    3.047831984363    5.904990381056   -0.002957583016
 H   -1.173745395421    5.667663543196   -0.002367603981
RB   -1.201902109379   -5.517730296684    0.003163674292
