13

 N   -0.273288392739    5.380441261269   -0.002272429774
 C    0.900451190344    6.107813452779   -0.002584908944
 H    0.782734330281    7.193131911823   -0.002700756503
 C   -0.319064365819    3.987229469402   -0.002657484343
 O   -1.370652534375    3.353126155561   -0.002314117239
 N    0.941376175322    3.403759413270   -0.002240581021
 H    0.951191972445    2.385474301404   -0.002267885116
 C    2.202630464555    4.039814900233   -0.002223486185
 O    3.236323392623    3.370551065817   -0.002969151849
 C    2.121151672795    5.500361961623   -0.002723383632
 H    3.044551811097    6.077422220489   -0.003064060409
 H   -1.177025568687    5.840095382629   -0.002474081374
RB   -1.197574454979   -5.745226025657    0.003304153871
