13

 N   -0.274928479373    5.466657180985   -0.002325668471
 C    0.898811103710    6.194029372495   -0.002638147641
 H    0.781094243647    7.279347831539   -0.002753995200
 C   -0.320704452453    4.073445389118   -0.002710723040
 O   -1.372292621009    3.439342075277   -0.002367355936
 N    0.939736088688    3.489975332986   -0.002293819718
 H    0.949551885811    2.471690221120   -0.002321123813
 C    2.200990377921    4.126030819949   -0.002276724882
 O    3.234683305989    3.456766985533   -0.003022390546
 C    2.119511586161    5.586577881339   -0.002776622329
 H    3.042911724463    6.163638140205   -0.003117299106
 H   -1.178665655321    5.926311302345   -0.002527320071
RB   -1.195410627780   -5.858973890143    0.003374393660
