13

 N   -0.275748522689    5.509765140843   -0.002352287819
 C    0.897991060394    6.237137332353   -0.002664766989
 H    0.780274200331    7.322455791397   -0.002780614548
 C   -0.321524495769    4.116553348976   -0.002737342388
 O   -1.373112664325    3.482450035135   -0.002393975284
 N    0.938916045372    3.533083292844   -0.002320439066
 H    0.948731842495    2.514798180978   -0.002347743161
 C    2.200170334605    4.169138779807   -0.002303344230
 O    3.233863262673    3.499874945391   -0.003049009894
 C    2.118691542845    5.629685841197   -0.002803241677
 H    3.042091681147    6.206746100063   -0.003143918454
 H   -1.179485698637    5.969419262203   -0.002553939419
RB   -1.194328714180   -5.915847822386    0.003409513555
