13

 N   -0.278208652639    5.639089020418   -0.002432145864
 C    0.895530930444    6.366461211928   -0.002744625034
 H    0.777814070381    7.451779670972   -0.002860472593
 C   -0.323984625719    4.245877228551   -0.002817200433
 O   -1.375572794275    3.611773914710   -0.002473833329
 N    0.936455915422    3.662407172419   -0.002400297111
 H    0.946271712545    2.644122060553   -0.002427601206
 C    2.197710204655    4.298462659382   -0.002383202275
 O    3.231403132723    3.629198824966   -0.003128867939
 C    2.116231412895    5.759009720772   -0.002883099722
 H    3.039631551197    6.336069979638   -0.003223776499
 H   -1.181945828587    6.098743141778   -0.002633797464
RB   -1.191082973381   -6.086469619115    0.003514873239
