14

 N    0.673633524006    1.490139025061   -0.002660181316
 C   -0.411813418897    2.312897994889    0.000481689905
 H   -0.220292579015    3.387954967388   -0.002022908637
 C    0.591769803324    0.070868563335   -0.001642512432
 O    1.635513050642   -0.582373326726   -0.004123353744
 N   -0.682068285357   -0.471271068258    0.008970721698
 C   -1.739754398170    0.330080962617    0.006477676870
 N   -2.971747514626   -0.273718066463   -0.038928146339
 H   -2.980681982947   -1.273411952974    0.130642462226
 H   -3.790325258829    0.252710252937    0.235971978458
 C   -1.671172399736    1.771457801812    0.002994243204
 H   -2.559696115421    2.402775393056   -0.006487710823
 H    1.617573646933    1.864787237503   -0.005966077544
 K    1.599923967984   -1.581722592551    0.001747088351
