14

 N    0.678255584523    1.619927500614   -0.003422593174
 C   -0.407191358380    2.442686470442   -0.000280721953
 H   -0.215670518498    3.517743442941   -0.002785320495
 C    0.596391863841    0.200657038888   -0.002404924290
 O    1.640135111159   -0.452584851173   -0.004885765602
 N   -0.677446224840   -0.341482592705    0.008208309840
 C   -1.735132337653    0.459869438170    0.005715265012
 N   -2.967125454109   -0.143929590910   -0.039690558197
 H   -2.976059922430   -1.143623477421    0.129880050368
 H   -3.785703198312    0.382498728490    0.235209566600
 C   -1.666550339219    1.901246277365    0.002231831346
 H   -2.555074054904    2.532563868609   -0.007250122681
 H    1.622195707450    1.994575713056   -0.006728489402
 K    1.586751487173   -1.951608749911    0.003919897541
