14

 N    0.679179996627    1.645885195725   -0.003575075546
 C   -0.406266946276    2.468644165553   -0.000433204325
 H   -0.214746106394    3.543701138052   -0.002937802867
 C    0.597316275945    0.226614733999   -0.002557406662
 O    1.641059523263   -0.426627156062   -0.005038247974
 N   -0.676521812736   -0.315524897594    0.008055827468
 C   -1.734207925549    0.485827133281    0.005562782640
 N   -2.966201042005   -0.117971895799   -0.039843040569
 H   -2.975135510326   -1.117665782310    0.129727567996
 H   -3.784778786208    0.408456423601    0.235057084228
 C   -1.665625927115    1.927203972476    0.002079348974
 H   -2.554149642800    2.558521563720   -0.007402605053
 H    1.623120119554    2.020533408167   -0.006880971774
 K    1.584116991011   -2.025585981382    0.004354459379
