14

 N    0.681953232937    1.723758281057   -0.004032522660
 C   -0.403493709966    2.546517250885   -0.000890651439
 H   -0.211972870084    3.621574223384   -0.003395249981
 C    0.600089512255    0.304487819331   -0.003014853776
 O    1.643832759573   -0.348754070730   -0.005495695088
 N   -0.673748576426   -0.237651812262    0.007598380354
 C   -1.731434689239    0.563700218613    0.005105335526
 N   -2.963427805695   -0.040098810467   -0.040300487683
 H   -2.972362274016   -1.039792696978    0.129270120882
 H   -3.782005549898    0.486329508933    0.234599637114
 C   -1.662852690805    2.005077057808    0.001621901860
 H   -2.551376406490    2.636394649052   -0.007860052167
 H    1.625893355864    2.098406493499   -0.007338418888
 K    1.576213502524   -2.247517675798    0.005658144893
