14

 N    0.683802057144    1.775673671278   -0.004337487403
 C   -0.401644885759    2.598432641106   -0.001195616182
 H   -0.210124045877    3.673489613605   -0.003700214724
 C    0.601938336462    0.356403209552   -0.003319818519
 O    1.645681583780   -0.296838680509   -0.005800659831
 N   -0.671899752219   -0.185736422041    0.007293415611
 C   -1.729585865032    0.615615608834    0.004800370783
 N   -2.961578981488    0.011816579754   -0.040605452426
 H   -2.970513449809   -0.987877306757    0.128965156139
 H   -3.780156725691    0.538244899154    0.234294672371
 C   -1.661003866598    2.056992448029    0.001316937117
 H   -2.549527582283    2.688310039273   -0.008165016910
 H    1.627742180071    2.150321883720   -0.007643383631
 K    1.570944510199   -2.395472138742    0.006527268569
