14

 N    0.685650881351    1.827589061500   -0.004642452147
 C   -0.399796061552    2.650348031328   -0.001500580926
 H   -0.208275221670    3.725405003827   -0.004005179468
 C    0.603787160669    0.408318599774   -0.003624783263
 O    1.647530407987   -0.244923290287   -0.006105624575
 N   -0.670050928012   -0.133821031819    0.006988450867
 C   -1.727737040825    0.667530999056    0.004495406039
 N   -2.959730157281    0.063731969976   -0.040910417170
 H   -2.968664625602   -0.935961916535    0.128660191395
 H   -3.778307901484    0.590160289376    0.233989707627
 C   -1.659155042391    2.108907838251    0.001011972373
 H   -2.547678758076    2.740225429495   -0.008469981654
 H    1.629591004278    2.202237273942   -0.007948348375
 K    1.565675517874   -2.543426601685    0.007396392245
