14

 N    0.687499705558    1.879504451721   -0.004947416890
 C   -0.397947237345    2.702263421549   -0.001805545669
 H   -0.206426397463    3.777320394048   -0.004310144211
 C    0.605635984876    0.460233989995   -0.003929748006
 O    1.649379232194   -0.193007900066   -0.006410589318
 N   -0.668202103805   -0.081905641598    0.006683486124
 C   -1.725888216618    0.719446389277    0.004190441296
 N   -2.957881333074    0.115647360197   -0.041215381913
 H   -2.966815801395   -0.884046526314    0.128355226652
 H   -3.776459077277    0.642075679597    0.233684742884
 C   -1.657306218184    2.160823228472    0.000707007630
 H   -2.545829933869    2.792140819716   -0.008774946397
 H    1.631439828485    2.254152664163   -0.008253313118
 K    1.560406525550   -2.691381064629    0.008265515921
