14

 N    0.689348529765    1.931419841942   -0.005252381633
 C   -0.396098413138    2.754178811770   -0.002110510412
 H   -0.204577573256    3.829235784269   -0.004615108954
 C    0.607484809083    0.512149380216   -0.004234712749
 O    1.651228056401   -0.141092509845   -0.006715554061
 N   -0.666353279598   -0.029990251377    0.006378521381
 C   -1.724039392411    0.771361779498    0.003885476553
 N   -2.956032508867    0.167562750418   -0.041520346656
 H   -2.964966977188   -0.832131136093    0.128050261909
 H   -3.774610253070    0.693991069818    0.233379778141
 C   -1.655457393977    2.212738618693    0.000402042887
 H   -2.543981109662    2.844056209937   -0.009079911140
 H    1.633288652692    2.306068054384   -0.008558277861
 K    1.555137533225   -2.839335527572    0.009134639597
