14

 N    0.691197353972    1.983335232164   -0.005557346376
 C   -0.394249588931    2.806094201992   -0.002415475155
 H   -0.202728749049    3.881151174491   -0.004920073697
 C    0.609333633290    0.564064770438   -0.004539677492
 O    1.653076880608   -0.089177119623   -0.007020518804
 N   -0.664504455391    0.021925138845    0.006073556638
 C   -1.722190568204    0.823277169720    0.003580511810
 N   -2.954183684660    0.219478140640   -0.041825311399
 H   -2.963118152981   -0.780215745871    0.127745297166
 H   -3.772761428863    0.745906460040    0.233074813398
 C   -1.653608569770    2.264654008915    0.000097078144
 H   -2.542132285455    2.895971600159   -0.009384875883
 H    1.635137476899    2.357983444606   -0.008863242604
 K    1.549868540900   -2.987289990516    0.010003763273
