14

 N    0.692121766075    2.009292927274   -0.005709828748
 C   -0.393325176828    2.832051897102   -0.002567957527
 H   -0.201804336946    3.907108869601   -0.005072556069
 C    0.610258045393    0.590022465548   -0.004692159864
 O    1.654001292711   -0.063219424513   -0.007173001176
 N   -0.663580043288    0.047882833955    0.005921074266
 C   -1.721266156101    0.849234864830    0.003428029438
 N   -2.953259272557    0.245435835750   -0.041977793771
 H   -2.962193740878   -0.754258050761    0.127592814794
 H   -3.771837016760    0.771864155150    0.232922331026
 C   -1.652684157667    2.290611704025   -0.000055404228
 H   -2.541207873352    2.921929295269   -0.009537358255
 H    1.636061889002    2.383941139716   -0.009015724976
 K    1.547234044738   -3.061267221988    0.010438325111
