14

 N    0.696743826592    2.139081402828   -0.006472240605
 C   -0.388703116311    2.961840372656   -0.003330369384
 H   -0.197182276429    4.036897345155   -0.005834967926
 C    0.614880105910    0.719810941102   -0.005454571721
 O    1.658623353228    0.066569051041   -0.007935413033
 N   -0.658957982771    0.177671309509    0.005158662409
 C   -1.716644095584    0.979023340384    0.002665617581
 N   -2.948637212040    0.375224311304   -0.042740205628
 H   -2.957571680361   -0.624469575207    0.126830402937
 H   -3.767214956243    0.901652630704    0.232159919169
 C   -1.648062097150    2.420400179579   -0.000817816085
 H   -2.536585812835    3.051717770823   -0.010299770112
 H    1.640683949519    2.513729615270   -0.009778136833
 K    1.534061563926   -3.431153379347    0.012611134301
