14

 N    0.697668238696    2.165039097938   -0.006624722977
 C   -0.387778704207    2.987798067766   -0.003482851756
 H   -0.196257864325    4.062855040265   -0.005987450298
 C    0.615804518014    0.745768636212   -0.005607054093
 O    1.659547765332    0.092526746151   -0.008087895405
 N   -0.658033570667    0.203629004619    0.005006180037
 C   -1.715719683480    1.004981035494    0.002513135209
 N   -2.947712799936    0.401182006414   -0.042892688000
 H   -2.956647268257   -0.598511880097    0.126677920565
 H   -3.766290544139    0.927610325814    0.232007436797
 C   -1.647137685046    2.446357874689   -0.000970298457
 H   -2.535661400731    3.077675465933   -0.010452252484
 H    1.641608361623    2.539687310380   -0.009930619205
 K    1.531427067764   -3.505130610819    0.013045696139
