14

 N    0.698592650799    2.190996793049   -0.006777205349
 C   -0.386854292104    3.013755762877   -0.003635334128
 H   -0.195333452222    4.088812735376   -0.006139932670
 C    0.616728930117    0.771726331323   -0.005759536465
 O    1.660472177435    0.118484441262   -0.008240377777
 N   -0.657109158564    0.229586699730    0.004853697665
 C   -1.714795271377    1.030938730605    0.002360652837
 N   -2.946788387833    0.427139701525   -0.043045170372
 H   -2.955722856154   -0.572554184986    0.126525438193
 H   -3.765366132036    0.953568020925    0.231854954425
 C   -1.646213272943    2.472315569800   -0.001122780829
 H   -2.534736988628    3.103633161044   -0.010604734856
 H    1.642532773726    2.565645005491   -0.010083101577
 K    1.528792571602   -3.579107842291    0.013480257977
