14

 N    0.699517062903    2.216954488160   -0.006929687720
 C   -0.385929880000    3.039713457988   -0.003787816499
 H   -0.194409040118    4.114770430487   -0.006292415041
 C    0.617653342221    0.797684026434   -0.005912018836
 O    1.661396589539    0.144442136373   -0.008392860148
 N   -0.656184746460    0.255544394841    0.004701215294
 C   -1.713870859273    1.056896425716    0.002208170466
 N   -2.945863975729    0.453097396636   -0.043197652743
 H   -2.954798444050   -0.546596489875    0.126372955822
 H   -3.764441719932    0.979525716036    0.231702472054
 C   -1.645288860839    2.498273264911   -0.001275263200
 H   -2.533812576524    3.129590856155   -0.010757217227
 H    1.643457185830    2.591602700602   -0.010235583948
 K    1.526158075439   -3.653085073763    0.013914819815
