14

 N    0.700441475006    2.242912183271   -0.007082170092
 C   -0.385005467897    3.065671153099   -0.003940298871
 H   -0.193484628015    4.140728125598   -0.006444897413
 C    0.618577754324    0.823641721545   -0.006064501208
 O    1.662321001642    0.170399831484   -0.008545342520
 N   -0.655260334357    0.281502089952    0.004548732922
 C   -1.712946447170    1.082854120827    0.002055688094
 N   -2.944939563626    0.479055091747   -0.043350135115
 H   -2.953874031947   -0.520638794764    0.126220473450
 H   -3.763517307829    1.005483411147    0.231549989682
 C   -1.644364448736    2.524230960022   -0.001427745572
 H   -2.532888164421    3.155548551266   -0.010909699599
 H    1.644381597933    2.617560395713   -0.010388066320
 K    1.523523579277   -3.727062305234    0.014349381653
