14

 N    0.702290299213    2.294827573492   -0.007387134835
 C   -0.383156643690    3.117586543320   -0.004245263614
 H   -0.191635803808    4.192643515819   -0.006749862156
 C    0.620426578531    0.875557111766   -0.006369465951
 O    1.664169825849    0.222315221705   -0.008850307263
 N   -0.653411510150    0.333417480173    0.004243768179
 C   -1.711097622963    1.134769511048    0.001750723351
 N   -2.943090739419    0.530970481968   -0.043655099858
 H   -2.952025207740   -0.468723404543    0.125915508707
 H   -3.761668483622    1.057398801368    0.231245024939
 C   -1.642515624529    2.576146350243   -0.001732710315
 H   -2.531039340214    3.207463941487   -0.011214664342
 H    1.646230422140    2.669475785934   -0.010693031063
 K    1.518254586952   -3.875016768178    0.015218505328
