14

 N    0.703214711316    2.320785268603   -0.007539617206
 C   -0.382232231587    3.143544238431   -0.004397745985
 H   -0.190711391705    4.218601210930   -0.006902344527
 C    0.621350990634    0.901514806877   -0.006521948322
 O    1.665094237952    0.248272916816   -0.009002789634
 N   -0.652487098047    0.359375175284    0.004091285808
 C   -1.710173210860    1.160727206159    0.001598240980
 N   -2.942166327316    0.556928177079   -0.043807582229
 H   -2.951100795637   -0.442765709432    0.125763026336
 H   -3.760744071519    1.083356496479    0.231092542568
 C   -1.641591212426    2.602104045354   -0.001885192686
 H   -2.530114928111    3.233421636598   -0.011367146713
 H    1.647154834243    2.695433481045   -0.010845513434
 K    1.515620090790   -3.948993999650    0.015653067166
