14

 N    0.704139123420    2.346742963713   -0.007692099578
 C   -0.381307819483    3.169501933541   -0.004550228357
 H   -0.189786979601    4.244558906040   -0.007054826899
 C    0.622275402738    0.927472501987   -0.006674430694
 O    1.666018650056    0.274230611926   -0.009155272006
 N   -0.651562685943    0.385332870394    0.003938803436
 C   -1.709248798756    1.186684901269    0.001445758608
 N   -2.941241915212    0.582885872189   -0.043960064601
 H   -2.950176383533   -0.416808014322    0.125610543964
 H   -3.759819659415    1.109314191589    0.230940060196
 C   -1.640666800322    2.628061740464   -0.002037675058
 H   -2.529190516007    3.259379331708   -0.011519629085
 H    1.648079246347    2.721391176155   -0.010997995806
 K    1.512985594628   -4.022971231122    0.016087629004
