14

 N    0.706912359730    2.424616049045   -0.008149546693
 C   -0.378534583173    3.247375018873   -0.005007675472
 H   -0.187013743291    4.322431991372   -0.007512274014
 C    0.625048639048    1.005345587319   -0.007131877809
 O    1.668791886366    0.352103697258   -0.009612719121
 N   -0.648789449633    0.463205955726    0.003481356321
 C   -1.706475562446    1.264557986601    0.000988311493
 N   -2.938468678902    0.660758957521   -0.044417511716
 H   -2.947403147223   -0.338934928990    0.125153096849
 H   -3.757046423105    1.187187276921    0.230482613081
 C   -1.637893564012    2.705934825796   -0.002495122173
 H   -2.526417279697    3.337252417040   -0.011977076200
 H    1.650852482657    2.799264261487   -0.011455442921
 K    1.505082106141   -4.244902925537    0.017391314518
