14

 N    0.707836771834    2.450573744156   -0.008302029064
 C   -0.377610171069    3.273332713984   -0.005160157843
 H   -0.186089331187    4.348389686483   -0.007664756385
 C    0.625973051152    1.031303282430   -0.007284360180
 O    1.669716298470    0.378061392369   -0.009765201492
 N   -0.647865037529    0.489163650837    0.003328873950
 C   -1.705551150342    1.290515681712    0.000835829122
 N   -2.937544266798    0.686716652632   -0.044569994087
 H   -2.946478735119   -0.312977233879    0.125000614478
 H   -3.756122011001    1.213144972032    0.230330130710
 C   -1.636969151908    2.731892520907   -0.002647604544
 H   -2.525492867593    3.363210112151   -0.012129558571
 H    1.651776894761    2.825221956598   -0.011607925292
 K    1.502447609979   -4.318880157009    0.017825876356
