14

 N    0.708761183937    2.476531439267   -0.008454511436
 C   -0.376685758966    3.299290409095   -0.005312640215
 H   -0.185164919084    4.374347381594   -0.007817238757
 C    0.626897463255    1.057260977541   -0.007436842552
 O    1.670640710573    0.404019087480   -0.009917683864
 N   -0.646940625426    0.515121345948    0.003176391578
 C   -1.704626738239    1.316473376823    0.000683346750
 N   -2.936619854695    0.712674347743   -0.044722476459
 H   -2.945554323016   -0.287019538768    0.124848132106
 H   -3.755197598898    1.239102667143    0.230177648338
 C   -1.636044739805    2.757850216018   -0.002800086916
 H   -2.524568455490    3.389167807262   -0.012282040943
 H    1.652701306864    2.851179651709   -0.011760407664
 K    1.499813113816   -4.392857388481    0.018260438194
