14

 N    0.709685596040    2.502489134377   -0.008606993807
 C   -0.375761346863    3.325248104205   -0.005465122586
 H   -0.184240506981    4.400305076704   -0.007969721128
 C    0.627821875358    1.083218672651   -0.007589324923
 O    1.671565122676    0.429976782590   -0.010070166235
 N   -0.646016213323    0.541079041058    0.003023909207
 C   -1.703702326136    1.342431071933    0.000530864379
 N   -2.935695442592    0.738632042853   -0.044874958830
 H   -2.944629910913   -0.261061843658    0.124695649735
 H   -3.754273186795    1.265060362253    0.230025165967
 C   -1.635120327702    2.783807911128   -0.002952569287
 H   -2.523644043387    3.415125502372   -0.012434523314
 H    1.653625718967    2.877137346819   -0.011912890035
 K    1.497178617654   -4.466834619953    0.018695000032
