14

 N    0.711534420247    2.554404524599   -0.008911958550
 C   -0.373912522656    3.377163494427   -0.005770087329
 H   -0.182391682774    4.452220466926   -0.008274685871
 C    0.629670699565    1.135134062873   -0.007894289666
 O    1.673413946883    0.481892172812   -0.010375130978
 N   -0.644167389116    0.592994431280    0.002718944464
 C   -1.701853501929    1.394346462155    0.000225899636
 N   -2.933846618385    0.790547433075   -0.045179923573
 H   -2.942781086706   -0.209146453436    0.124390684992
 H   -3.752424362588    1.316975752475    0.229720201224
 C   -1.633271503495    2.835723301350   -0.003257534030
 H   -2.521795219180    3.467040892594   -0.012739488057
 H    1.655474543174    2.929052737041   -0.012217854778
 K    1.491909625329   -4.614789082896    0.019564123708
