14

 N    0.716156480765    2.684193000152   -0.009674370408
 C   -0.369290462138    3.506951969980   -0.006532499187
 H   -0.177769622256    4.582008942479   -0.009037097729
 C    0.634292760083    1.264922538426   -0.008656701524
 O    1.678036007401    0.611680648365   -0.011137542836
 N   -0.639545328598    0.722782906833    0.001956532606
 C   -1.697231441411    1.524134937708   -0.000536512222
 N   -2.929224557867    0.920335908628   -0.045942335431
 H   -2.938159026188   -0.079357977883    0.123628273134
 H   -3.747802302070    1.446764228028    0.228957789366
 C   -1.628649442977    2.965511776903   -0.004019945888
 H   -2.517173158662    3.596829368147   -0.013501899915
 H    1.660096603692    3.058841212594   -0.012980266636
 K    1.478737144518   -4.984675240255    0.021736932898
