14

 N    0.717080892868    2.710150695263   -0.009826852780
 C   -0.368366050035    3.532909665091   -0.006684981559
 H   -0.176845210153    4.607966637590   -0.009189580101
 C    0.635217172186    1.290880233537   -0.008809183896
 O    1.678960419504    0.637638343476   -0.011290025208
 N   -0.638620916495    0.748740601944    0.001804050234
 C   -1.696307029308    1.550092632819   -0.000688994594
 N   -2.928300145764    0.946293603739   -0.046094817803
 H   -2.937234614085   -0.053400282772    0.123475790762
 H   -3.746877889967    1.472721923139    0.228805306994
 C   -1.627725030874    2.991469472014   -0.004172428260
 H   -2.516248746559    3.622787063258   -0.013654382287
 H    1.661021015795    3.084798907705   -0.013132749008
 K    1.476102648355   -5.058652471727    0.022171494736
