14

 N    0.718005304971    2.736108390374   -0.009979335151
 C   -0.367441637932    3.558867360202   -0.006837463930
 H   -0.175920798050    4.633924332701   -0.009342062472
 C    0.636141584289    1.316837928648   -0.008961666267
 O    1.679884831607    0.663596038587   -0.011442507579
 N   -0.637696504392    0.774698297055    0.001651567863
 C   -1.695382617205    1.576050327930   -0.000841476965
 N   -2.927375733661    0.972251298850   -0.046247300174
 H   -2.936310201982   -0.027442587661    0.123323308391
 H   -3.745953477864    1.498679618250    0.228652824623
 C   -1.626800618771    3.017427167125   -0.004324910631
 H   -2.515324334456    3.648744758369   -0.013806864658
 H    1.661945427898    3.110756602816   -0.013285231379
 K    1.473468152193   -5.132629703199    0.022606056574
