14

 N    0.718929717075    2.762066085484   -0.010131817523
 C   -0.366517225828    3.584825055312   -0.006989946302
 H   -0.174996385946    4.659882027811   -0.009494544844
 C    0.637065996393    1.342795623758   -0.009114148639
 O    1.680809243711    0.689553733697   -0.011594989951
 N   -0.636772092288    0.800655992165    0.001499085491
 C   -1.694458205101    1.602008023040   -0.000993959337
 N   -2.926451321557    0.998208993960   -0.046399782546
 H   -2.935385789878   -0.001484892551    0.123170826019
 H   -3.745029065760    1.524637313360    0.228500342251
 C   -1.625876206667    3.043384862235   -0.004477393003
 H   -2.514399922352    3.674702453479   -0.013959347030
 H    1.662869840002    3.136714297926   -0.013437713751
 K    1.470833656031   -5.206606934671    0.023040618412
