14

 N    0.719854129178    2.788023780595   -0.010284299895
 C   -0.365592813725    3.610782750423   -0.007142428674
 H   -0.174071973843    4.685839722922   -0.009647027216
 C    0.637990408496    1.368753318869   -0.009266631011
 O    1.681733655814    0.715511428808   -0.011747472323
 N   -0.635847680185    0.826613687276    0.001346603119
 C   -1.693533792998    1.627965718151   -0.001146441709
 N   -2.925526909454    1.024166689071   -0.046552264918
 H   -2.934461377775    0.024472802560    0.123018343647
 H   -3.744104653657    1.550595008471    0.228347859879
 C   -1.624951794564    3.069342557346   -0.004629875375
 H   -2.513475510249    3.700660148590   -0.014111829402
 H    1.663794252105    3.162671993037   -0.013590196123
 K    1.468199159868   -5.280584166143    0.023475180250
