14

 N    0.722627365489    2.865896865927   -0.010741747009
 C   -0.362819577414    3.688655835755   -0.007599875788
 H   -0.171298737532    4.763712808254   -0.010104474330
 C    0.640763644807    1.446626404201   -0.009724078125
 O    1.684506892125    0.793384514140   -0.012204919437
 N   -0.633074443874    0.904486772608    0.000889156005
 C   -1.690760556687    1.705838803483   -0.001603888823
 N   -2.922753673143    1.102039774403   -0.047009712032
 H   -2.931688141464    0.102345887892    0.122560896533
 H   -3.741331417346    1.628468093803    0.227890412765
 C   -1.622178558253    3.147215642678   -0.005087322489
 H   -2.510702273938    3.778533233922   -0.014569276516
 H    1.666567488416    3.240545078369   -0.014047643237
 K    1.460295671381   -5.502515860558    0.024778865764
