14

 N    0.724476189696    2.917812256148   -0.011046711752
 C   -0.360970753207    3.740571225976   -0.007904840531
 H   -0.169449913325    4.815628198475   -0.010409439073
 C    0.642612469014    1.498541794422   -0.010029042868
 O    1.686355716332    0.845299904361   -0.012509884180
 N   -0.631225619667    0.956402162829    0.000584191262
 C   -1.688911732480    1.757754193704   -0.001908853566
 N   -2.920904848936    1.153955164624   -0.047314676775
 H   -2.929839317257    0.154261278113    0.122255931790
 H   -3.739482593139    1.680383484024    0.227585448022
 C   -1.620329734046    3.199131032899   -0.005392287232
 H   -2.508853449731    3.830448624143   -0.014874241259
 H    1.668416312623    3.292460468590   -0.014352607980
 K    1.455026679057   -5.650470323502    0.025647989440
