14

 N    0.725400601799    2.943769951259   -0.011199194124
 C   -0.360046341104    3.766528921087   -0.008057322903
 H   -0.168525501222    4.841585893586   -0.010561921445
 C    0.643536881117    1.524499489533   -0.010181525240
 O    1.687280128435    0.871257599472   -0.012662366552
 N   -0.630301207564    0.982359857940    0.000431708890
 C   -1.687987320377    1.783711888815   -0.002061335938
 N   -2.919980436833    1.179912859735   -0.047467159147
 H   -2.928914905154    0.180218973224    0.122103449418
 H   -3.738558181036    1.706341179135    0.227432965650
 C   -1.619405321943    3.225088728010   -0.005544769604
 H   -2.507929037628    3.856406319254   -0.015026723631
 H    1.669340724726    3.318418163701   -0.014505090352
 K    1.452392182894   -5.724447554974    0.026082551278
