14

 N    0.727249426006    2.995685341480   -0.011504158867
 C   -0.358197516897    3.818444311308   -0.008362287646
 H   -0.166676677015    4.893501283807   -0.010866886188
 C    0.645385705324    1.576414879754   -0.010486489983
 O    1.689128952642    0.923172989693   -0.012967331295
 N   -0.628452383357    1.034275248161    0.000126744147
 C   -1.686138496170    1.835627279036   -0.002366300681
 N   -2.918131612626    1.231828249956   -0.047772123890
 H   -2.927066080947    0.232134363445    0.121798484675
 H   -3.736709356829    1.758256569356    0.227128000907
 C   -1.617556497736    3.277004118231   -0.005849734347
 H   -2.506080213421    3.908321709475   -0.015331688374
 H    1.671189548933    3.370333553922   -0.014810055095
 K    1.447123190570   -5.872402017917    0.026951674954
