14

 N    0.728173838109    3.021643036591   -0.011656641239
 C   -0.357273104794    3.844402006419   -0.008514770018
 H   -0.165752264912    4.919458978918   -0.011019368560
 C    0.646310117427    1.602372574865   -0.010638972355
 O    1.690053364745    0.949130684804   -0.013119813667
 N   -0.627527971254    1.060232943272   -0.000025738225
 C   -1.685214084067    1.861584974147   -0.002518783053
 N   -2.917207200523    1.257785945067   -0.047924606262
 H   -2.926141668844    0.258092058556    0.121646002303
 H   -3.735784944726    1.784214264467    0.226975518535
 C   -1.616632085633    3.302961813342   -0.006002216719
 H   -2.505155801318    3.934279404586   -0.015484170746
 H    1.672113961036    3.396291249033   -0.014962537467
 K    1.444488694407   -5.946379249389    0.027386236792
