14

 N    0.731871486523    3.125473817034   -0.012266570725
 C   -0.353575456380    3.948232786862   -0.009124699504
 H   -0.162054616498    5.023289759361   -0.011629298046
 C    0.650007765841    1.706203355308   -0.011248901841
 O    1.693751013159    1.052961465247   -0.013729743153
 N   -0.623830322840    1.164063723715   -0.000635667711
 C   -1.681516435653    1.965415754590   -0.003128712539
 N   -2.913509552109    1.361616725510   -0.048534535748
 H   -2.922444020430    0.361922838999    0.121036072817
 H   -3.732087296312    1.888045044910    0.226365589049
 C   -1.612934437219    3.406792593785   -0.006612146205
 H   -2.501458152904    4.038110185029   -0.016094100232
 H    1.675811609450    3.500122029476   -0.015572466953
 K    1.433950709758   -6.242288175277    0.029124484144
