14

 N    0.732795898627    3.151431512144   -0.012419053097
 C   -0.352651044276    3.974190481972   -0.009277181876
 H   -0.161130204394    5.049247454471   -0.011781780418
 C    0.650932177945    1.732161050418   -0.011401384213
 O    1.694675425263    1.078919160357   -0.013882225525
 N   -0.622905910736    1.190021418825   -0.000788150083
 C   -1.680592023549    1.991373449700   -0.003281194911
 N   -2.912585140005    1.387574420620   -0.048687018120
 H   -2.921519608326    0.387880534109    0.120883590445
 H   -3.731162884208    1.914002740020    0.226213106677
 C   -1.612010025115    3.432750288895   -0.006764628577
 H   -2.500533740800    4.064067880139   -0.016246582604
 H    1.676736021554    3.526079724586   -0.015724949325
 K    1.431316213596   -6.316265406748    0.029559045982
