14

 N    0.738342371247    3.307177682809   -0.013333947326
 C   -0.347104571656    4.129936652637   -0.010192076105
 H   -0.155583731774    5.204993625136   -0.012696674647
 C    0.656478650565    1.887907221083   -0.012316278442
 O    1.700221897883    1.234665331022   -0.014797119754
 N   -0.617359438116    1.345767589490   -0.001703044312
 C   -1.675045550929    2.147119620365   -0.004196089140
 N   -2.907038667385    1.543320591285   -0.049601912349
 H   -2.915973135706    0.543626704774    0.119968696216
 H   -3.725616411588    2.069748910685    0.225298212448
 C   -1.606463552495    3.588496459560   -0.007679522806
 H   -2.494987268180    4.219814050804   -0.017161476833
 H    1.682282494174    3.681825895251   -0.016639843554
 K    1.415509236622   -6.760128795579    0.032166417009
