14

 N    0.740191195454    3.359093073030   -0.013638912069
 C   -0.345255747449    4.181852042858   -0.010497040848
 H   -0.153734907567    5.256909015357   -0.013001639390
 C    0.658327474772    1.939822611304   -0.012621243185
 O    1.702070722090    1.286580721243   -0.015102084497
 N   -0.615510613909    1.397682979711   -0.002008009055
 C   -1.673196726722    2.199035010586   -0.004501053883
 N   -2.905189843178    1.595235981506   -0.049906877092
 H   -2.914124311499    0.595542094995    0.119663731473
 H   -3.723767587381    2.121664300906    0.224993247705
 C   -1.604614728288    3.640411849781   -0.007984487549
 H   -2.493138443973    4.271729441025   -0.017466441576
 H    1.684131318381    3.733741285472   -0.016944808297
 K    1.410240244297   -6.908083258523    0.033035540685
