14

 N    0.742040019661    3.411008463251   -0.013943876812
 C   -0.343406923242    4.233767433079   -0.010802005591
 H   -0.151886083360    5.308824405578   -0.013306604133
 C    0.660176298979    1.991738001525   -0.012926207928
 O    1.703919546297    1.338496111464   -0.015407049240
 N   -0.613661789702    1.449598369932   -0.002312973798
 C   -1.671347902515    2.250950400807   -0.004806018626
 N   -2.903341018971    1.647151371727   -0.050211841835
 H   -2.912275487292    0.647457485216    0.119358766730
 H   -3.721918763174    2.173579691127    0.224688282962
 C   -1.602765904081    3.692327240002   -0.008289452292
 H   -2.491289619766    4.323644831246   -0.017771406319
 H    1.685980142588    3.785656675693   -0.017249773040
 K    1.404971251973   -7.056037721467    0.033904664361
