14

 N    0.743888843868    3.462923853473   -0.014248841555
 C   -0.341558099035    4.285682823301   -0.011106970334
 H   -0.150037259153    5.360739795800   -0.013611568876
 C    0.662025123186    2.043653391747   -0.013231172671
 O    1.705768370504    1.390411501686   -0.015712013983
 N   -0.611812965495    1.501513760154   -0.002617938541
 C   -1.669499078308    2.302865791029   -0.005110983369
 N   -2.901492194764    1.699066761949   -0.050516806578
 H   -2.910426663085    0.699372875438    0.119053801987
 H   -3.720069938967    2.225495081349    0.224383318219
 C   -1.600917079874    3.744242630224   -0.008594417035
 H   -2.489440795559    4.375560221468   -0.018076371062
 H    1.687828966795    3.837572065915   -0.017554737783
 K    1.399702259648   -7.203992184410    0.034773788037
