14

 N    0.744813255971    3.488881548583   -0.014401323927
 C   -0.340633686932    4.311640518411   -0.011259452706
 H   -0.149112847050    5.386697490910   -0.013764051248
 C    0.662949535289    2.069611086857   -0.013383655043
 O    1.706692782607    1.416369196796   -0.015864496355
 N   -0.610888553392    1.527471455264   -0.002770420913
 C   -1.668574666205    2.328823486139   -0.005263465741
 N   -2.900567782661    1.725024457059   -0.050669288950
 H   -2.909502250982    0.725330570548    0.118901319615
 H   -3.719145526864    2.251452776459    0.224230835847
 C   -1.599992667771    3.770200325334   -0.008746899407
 H   -2.488516383456    4.401517916578   -0.018228853434
 H    1.688753378898    3.863529761025   -0.017707220155
 K    1.397067763486   -7.277969415882    0.035208349875
