14

 N    0.746662080178    3.540796938805   -0.014706288670
 C   -0.338784862725    4.363555908633   -0.011564417449
 H   -0.147264022843    5.438612881132   -0.014069015991
 C    0.664798359496    2.121526477079   -0.013688619786
 O    1.708541606814    1.468284587018   -0.016169461098
 N   -0.609039729185    1.579386845486   -0.003075385656
 C   -1.666725841998    2.380738876361   -0.005568430484
 N   -2.898718958454    1.776939847281   -0.050974253693
 H   -2.907653426775    0.777245960770    0.118596354872
 H   -3.717296702657    2.303368166681    0.223925871104
 C   -1.598143843564    3.822115715556   -0.009051864150
 H   -2.486667559249    4.453433306800   -0.018533818177
 H    1.690602203105    3.915445151247   -0.018012184898
 K    1.391798771161   -7.425923878826    0.036077473551
