14

 N    0.748510904385    3.592712329026   -0.015011253413
 C   -0.336936038518    4.415471298854   -0.011869382192
 H   -0.145415198636    5.490528271353   -0.014373980734
 C    0.666647183703    2.173441867300   -0.013993584529
 O    1.710390431021    1.520199977239   -0.016474425841
 N   -0.607190904978    1.631302235707   -0.003380350399
 C   -1.664877017791    2.432654266582   -0.005873395227
 N   -2.896870134247    1.828855237502   -0.051279218436
 H   -2.905804602568    0.829161350991    0.118291390129
 H   -3.715447878450    2.355283556902    0.223620906361
 C   -1.596295019357    3.874031105777   -0.009356828893
 H   -2.484818735042    4.505348697021   -0.018838782920
 H    1.692451027312    3.967360541468   -0.018317149641
 K    1.386529778836   -7.573878341769    0.036946597227
