14

 N    0.750359728592    3.644627719247   -0.015316218156
 C   -0.335087214311    4.467386689075   -0.012174346935
 H   -0.143566374429    5.542443661574   -0.014678945477
 C    0.668496007910    2.225357257521   -0.014298549272
 O    1.712239255228    1.572115367460   -0.016779390584
 N   -0.605342080771    1.683217625928   -0.003685315142
 C   -1.663028193584    2.484569656803   -0.006178359970
 N   -2.895021310040    1.880770627723   -0.051584183179
 H   -2.903955778361    0.881076741212    0.117986425386
 H   -3.713599054243    2.407198947123    0.223315941618
 C   -1.594446195150    3.925946495998   -0.009661793636
 H   -2.482969910835    4.557264087242   -0.019143747663
 H    1.694299851519    4.019275931689   -0.018622114384
 K    1.381260786512   -7.721832804713    0.037815720903
