14

 N    0.753132964902    3.722500804580   -0.015773665271
 C   -0.332313978001    4.545259774408   -0.012631794050
 H   -0.140793138119    5.620316746907   -0.015136392592
 C    0.671269244220    2.303230342854   -0.014755996387
 O    1.715012491538    1.649988452793   -0.017236837699
 N   -0.602568844461    1.761090711261   -0.004142762257
 C   -1.660254957274    2.562442742136   -0.006635807085
 N   -2.892248073730    1.958643713056   -0.052041630294
 H   -2.901182542051    0.958949826545    0.117528978271
 H   -3.710825817933    2.485072032456    0.222858494503
 C   -1.591672958840    4.003819581331   -0.010119240751
 H   -2.480196674525    4.635137172575   -0.019601194778
 H    1.697073087829    4.097149017022   -0.019079561499
 K    1.373357298025   -7.943764499129    0.039119406417
