14

 N    0.754057377006    3.748458499690   -0.015926147643
 C   -0.331389565897    4.571217469518   -0.012784276422
 H   -0.139868726015    5.646274442017   -0.015288874964
 C    0.672193656324    2.329188037964   -0.014908478759
 O    1.715936903642    1.675946147903   -0.017389320071
 N   -0.601644432357    1.787048406371   -0.004295244629
 C   -1.659330545170    2.588400437246   -0.006788289457
 N   -2.891323661626    1.984601408166   -0.052194112666
 H   -2.900258129947    0.984907521655    0.117376495899
 H   -3.709901405829    2.511029727566    0.222706012131
 C   -1.590748546736    4.029777276441   -0.010271723123
 H   -2.479272262421    4.661094867685   -0.019753677150
 H    1.697997499933    4.123106712132   -0.019232043871
 K    1.370722801862   -8.017741730600    0.039553968255
