16

 N   -2.287226099949    0.072012592966    0.036342108060
 C   -1.055100367682   -0.558277687042    0.037297068368
 N   -0.784959431556   -1.879163162010    0.033832879421
 C    0.543169736907   -2.097357054760    0.049400308084
 H    0.856978019877   -3.144035787250    0.052779878775
 N    1.555519179948   -1.189376097619    0.063371578359
 C    1.243302436041    0.121444985630    0.058725174459
 N    2.250929390843    1.045943622935    0.016903337528
 H    3.182380928230    0.715413514183    0.239361271661
 H    2.018191884816    2.005914377974    0.241713582968
 C   -0.122198404833    0.498138839497    0.049954086744
 N   -0.745727716024    1.737104540127    0.059832295762
 C   -2.045653203181    1.429025151766    0.051377442604
 H   -2.855706731968    2.155605952868    0.055425580467
 H   -3.191015777119   -0.388244530868    0.028739052127
LI    2.478246404968    1.271163713034   -0.930515728199
