16

 N   -2.290593844065    0.068675915172    0.050378298865
 C   -1.058468111798   -0.561614364836    0.051333259173
 N   -0.788327175672   -1.882499839804    0.047869070226
 C    0.539801992791   -2.100693732554    0.063436498889
 H    0.853610275761   -3.147372465044    0.066816069580
 N    1.552151435832   -1.192712775413    0.077407769164
 C    1.239934691925    0.118108307836    0.072761365264
 N    2.247561646727    1.042606945141    0.030939528333
 H    3.179013184114    0.712076836389    0.253397462466
 H    2.014824140700    2.002577700180    0.255749773773
 C   -0.125566148949    0.494802161703    0.063990277549
 N   -0.749095460140    1.733767862333    0.073868486567
 C   -2.049020947297    1.425688473972    0.065413633409
 H   -2.859074476084    2.152269275074    0.069461771272
 H   -3.194383521235   -0.391581208662    0.042775242932
LI    2.543073765091    1.335393062271   -1.200705257113
