16

 N   -2.291716425436    0.067563689241    0.055057029133
 C   -1.059590693169   -0.562726590767    0.056011989441
 N   -0.789449757043   -1.883612065735    0.052547800494
 C    0.538679411420   -2.101805958485    0.068115229157
 H    0.852487694390   -3.148484690975    0.071494799848
 N    1.551028854461   -1.193825001344    0.082086499432
 C    1.238812110554    0.116996081905    0.077440095532
 N    2.246439065356    1.041494719210    0.035618258601
 H    3.177890602743    0.710964610458    0.258076192734
 H    2.013701559329    2.001465474249    0.260428504041
 C   -0.126688730320    0.493689935772    0.068669007817
 N   -0.750218041511    1.732655636402    0.078547216835
 C   -2.050143528668    1.424576248041    0.070092363677
 H   -2.860197057455    2.151157049143    0.074140501540
 H   -3.195506102606   -0.392693434593    0.047453973200
LI    2.564682885131    1.356802845350   -1.290768433418
