16

 N   -2.297329332295    0.062002559586    0.078450680474
 C   -1.065203600028   -0.568287720422    0.079405640782
 N   -0.795062663902   -1.889173195390    0.075941451835
 C    0.533066504561   -2.107367088140    0.091508880498
 H    0.846874787531   -3.154045820630    0.094888451189
 N    1.545415947602   -1.199386130999    0.105480150773
 C    1.233199203695    0.111434952250    0.100833746873
 N    2.240826158497    1.035933589555    0.059011909942
 H    3.172277695884    0.705403480803    0.281469844075
 H    2.008088652470    1.995904344594    0.283822155382
 C   -0.132301637179    0.488128806117    0.092062659158
 N   -0.755830948370    1.727094506747    0.101940868176
 C   -2.055756435527    1.419015118386    0.093486015018
 H   -2.865809964314    2.145595919488    0.097534152881
 H   -3.201119009465   -0.398254564248    0.070847624541
LI    2.672728485335    1.463851760744   -1.741084314941
