16

 N   -2.299574495039    0.059778107723    0.087808141010
 C   -1.067448762772   -0.570512172285    0.088763101318
 N   -0.797307826646   -1.891397647253    0.085298912371
 C    0.530821341817   -2.109591540003    0.100866341034
 H    0.844629624787   -3.156270272493    0.104245911725
 N    1.543170784858   -1.201610582862    0.114837611309
 C    1.230954040951    0.109210500387    0.110191207409
 N    2.238580995753    1.033709137692    0.068369370478
 H    3.170032533140    0.703179028940    0.290827304611
 H    2.005843489726    1.993679892731    0.293179615918
 C   -0.134546799923    0.485904354254    0.101420119694
 N   -0.758076111114    1.724870054884    0.111298328712
 C   -2.058001598271    1.416790666523    0.102843475554
 H   -2.868055127058    2.143371467625    0.106891613417
 H   -3.203364172209   -0.400479016111    0.080205085077
LI    2.715946725417    1.506671326901   -1.921210667550
