16

 N   -2.301819657782    0.057553655861    0.097165601546
 C   -1.069693925515   -0.572736624147    0.098120561854
 N   -0.799552989389   -1.893622099115    0.094656372907
 C    0.528576179074   -2.111815991865    0.110223801570
 H    0.842384462044   -3.158494724355    0.113603372261
 N    1.540925622115   -1.203835034724    0.124195071845
 C    1.228708878208    0.106986048525    0.119548667945
 N    2.236335833010    1.031484685830    0.077726831014
 H    3.167787370397    0.700954577078    0.300184765147
 H    2.003598326983    1.991455440869    0.302537076454
 C   -0.136791962666    0.483679902392    0.110777580230
 N   -0.760321273857    1.722645603022    0.120655789248
 C   -2.060246761014    1.414566214661    0.112200936090
 H   -2.870300289801    2.141147015763    0.116249073953
 H   -3.205609334952   -0.402703467973    0.089562545613
LI    2.759164965498    1.549490893059   -2.101337020160
