16

 N   -2.302942239154    0.056441429930    0.101844331815
 C   -1.070816506887   -0.573848850078    0.102799292123
 N   -0.800675570761   -1.894734325046    0.099335103176
 C    0.527453597702   -2.112928217796    0.114902531839
 H    0.841261880672   -3.159606950286    0.118282102530
 N    1.539803040743   -1.204947260655    0.128873802114
 C    1.227586296836    0.105873822594    0.124227398214
 N    2.235213251638    1.030372459899    0.082405561283
 H    3.166664789025    0.699842351147    0.304863495416
 H    2.002475745611    1.990343214938    0.307215806723
 C   -0.137914544038    0.482567676461    0.115456310499
 N   -0.761443855229    1.721533377091    0.125334519517
 C   -2.061369342386    1.413453988730    0.116879666359
 H   -2.871422871173    2.140034789832    0.120927804222
 H   -3.206731916324   -0.403815693904    0.094241275882
LI    2.780774085539    1.570900676138   -2.191400196464
