16

 N   -2.304064820526    0.055329203999    0.106523062083
 C   -1.071939088259   -0.574961076009    0.107478022391
 N   -0.801798152133   -1.895846550977    0.104013833444
 C    0.526331016330   -2.114040443727    0.119581262107
 H    0.840139299300   -3.160719176217    0.122960832798
 N    1.538680459371   -1.206059486586    0.133552532382
 C    1.226463715464    0.104761596663    0.128906128482
 N    2.234090670266    1.029260233968    0.087084291551
 H    3.165542207653    0.698730125216    0.309542225684
 H    2.001353164239    1.989230989007    0.311894536991
 C   -0.139037125410    0.481455450530    0.120135040767
 N   -0.762566436601    1.720421151160    0.130013249785
 C   -2.062491923758    1.412341762799    0.121558396627
 H   -2.872545452545    2.138922563901    0.125606534490
 H   -3.207854497696   -0.404927919835    0.098920006150
LI    2.802383205580    1.592310459217   -2.281463372769
