16

 N   -2.317535796987    0.041982492825    0.162667825301
 C   -1.085410064720   -0.588307787183    0.163622785609
 N   -0.815269128594   -1.909193262151    0.160158596662
 C    0.512860039869   -2.127387154901    0.175726025325
 H    0.826668322839   -3.174065887391    0.179105596016
 N    1.525209482910   -1.219406197760    0.189697295600
 C    1.212992739003    0.091414885489    0.185050891700
 N    2.220619693805    1.015913522794    0.143229054769
 H    3.152071231192    0.685383414042    0.365686988902
 H    1.987882187778    1.975884277833    0.368039300209
 C   -0.152508101871    0.468108739356    0.176279803985
 N   -0.776037413062    1.707074439986    0.186158013003
 C   -2.075962900219    1.398995051625    0.177703159845
 H   -2.886016429006    2.125575852727    0.181751297708
 H   -3.221325474157   -0.418274631009    0.155064769368
LI    3.061692646069    1.849227856163   -3.362221488424
