16

 N   -2.326516447962    0.033084685376    0.200097667446
 C   -1.094390715695   -0.597205594632    0.201052627754
 N   -0.824249779569   -1.918091069600    0.197588438807
 C    0.503879388894   -2.136284962350    0.213155867470
 H    0.817687671864   -3.182963694840    0.216535438161
 N    1.516228831935   -1.228304005209    0.227127137745
 C    1.204012088028    0.082517078040    0.222480733845
 N    2.211639042830    1.007015715345    0.180658896914
 H    3.143090580217    0.676485606593    0.403116831047
 H    1.978901536803    1.966986470384    0.405469142354
 C   -0.161488752846    0.459210931907    0.213709646130
 N   -0.785018064037    1.698176632537    0.223587855148
 C   -2.084943551194    1.390097244176    0.215133001990
 H   -2.894997079981    2.116678045278    0.219181139853
 H   -3.230306125132   -0.427172438458    0.192494611513
LI    3.234565606395    2.020506120793   -4.082726898861
