16

 N   -2.329884192077    0.029748007583    0.214133858250
 C   -1.097758459810   -0.600542272425    0.215088818558
 N   -0.827617523684   -1.921427747393    0.211624629611
 C    0.500511644779   -2.139621640143    0.227192058274
 H    0.814319927749   -3.186300372633    0.230571628965
 N    1.512861087820   -1.231640683002    0.241163328549
 C    1.200644343913    0.079180400247    0.236516924649
 N    2.208271298715    1.003679037552    0.194695087718
 H    3.139722836102    0.673148928800    0.417153021851
 H    1.975533792688    1.963649792591    0.419505333158
 C   -0.164856496961    0.455874254114    0.227745836934
 N   -0.788385808152    1.694839954744    0.237624045952
 C   -2.088311295309    1.386760566383    0.229169192794
 H   -2.898364824096    2.113341367485    0.233217330657
 H   -3.233673869247   -0.430509116251    0.206530802317
LI    3.299392966517    2.084735470030   -4.352916427775
