16

 N   -2.333251936192    0.026411329790    0.228170049055
 C   -1.101126203925   -0.603878950218    0.229125009363
 N   -0.830985267799   -1.924764425186    0.225660820416
 C    0.497143900664   -2.142958317936    0.241228249079
 H    0.810952183634   -3.189637050426    0.244607819770
 N    1.509493343705   -1.234977360795    0.255199519354
 C    1.197276599798    0.075843722454    0.250553115454
 N    2.204903554600    1.000342359759    0.208731278523
 H    3.136355091987    0.669812251007    0.431189212656
 H    1.972166048573    1.960313114798    0.433541523963
 C   -0.168224241076    0.452537576321    0.241782027739
 N   -0.791753552267    1.691503276951    0.251660236757
 C   -2.091679039424    1.383423888590    0.243205383599
 H   -2.901732568211    2.110004689692    0.247253521462
 H   -3.237041613362   -0.433845794044    0.220566993122
LI    3.364220326640    2.148964819266   -4.623105956689
