16

 N   -2.334374517564    0.025299103858    0.232848779323
 C   -1.102248785297   -0.604991176150    0.233803739631
 N   -0.832107849171   -1.925876651118    0.230339550684
 C    0.496021319292   -2.144070543868    0.245906979347
 H    0.809829602262   -3.190749276358    0.249286550038
 N    1.508370762333   -1.236089586727    0.259878249622
 C    1.196154018426    0.074731496522    0.255231845722
 N    2.203780973228    0.999230133827    0.213410008791
 H    3.135232510615    0.668700025075    0.435867942924
 H    1.971043467201    1.959200888866    0.438220254231
 C   -0.169346822448    0.451425350389    0.246460758007
 N   -0.792876133639    1.690391051019    0.256338967025
 C   -2.092801620796    1.382311662658    0.247884113867
 H   -2.902855149583    2.108892463760    0.251932251730
 H   -3.238164194734   -0.434958019976    0.225245723390
LI    3.385829446681    2.170374602345   -4.713169132994
