16

 N   -2.335497098936    0.024186877927    0.237527509591
 C   -1.103371366669   -0.606103402081    0.238482469899
 N   -0.833230430543   -1.926988877049    0.235018280952
 C    0.494898737920   -2.145182769799    0.250585709615
 H    0.808707020890   -3.191861502289    0.253965280306
 N    1.507248180961   -1.237201812658    0.264556979890
 C    1.195031437054    0.073619270591    0.259910575990
 N    2.202658391856    0.998117907896    0.218088739059
 H    3.134109929243    0.667587799144    0.440546673192
 H    1.969920885829    1.958088662935    0.442898984499
 C   -0.170469403820    0.450313124458    0.251139488275
 N   -0.793998715011    1.689278825088    0.261017697293
 C   -2.093924202168    1.381199436727    0.252562844135
 H   -2.903977730955    2.107780237829    0.256610981998
 H   -3.239286776106   -0.436070245907    0.229924453658
LI    3.407438566721    2.191784385424   -4.803232309298
