16

 N   -2.336619680308    0.023074651996    0.242206239859
 C   -1.104493948041   -0.607215628012    0.243161200167
 N   -0.834353011915   -1.928101102980    0.239697011220
 C    0.493776156548   -2.146294995730    0.255264439883
 H    0.807584439518   -3.192973728220    0.258644010574
 N    1.506125599589   -1.238314038589    0.269235710158
 C    1.193908855682    0.072507044660    0.264589306258
 N    2.201535810484    0.997005681965    0.222767469327
 H    3.132987347871    0.666475573213    0.445225403460
 H    1.968798304457    1.956976437004    0.447577714767
 C   -0.171591985192    0.449200898527    0.255818218543
 N   -0.795121296383    1.688166599157    0.265696427561
 C   -2.095046783540    1.380087210796    0.257241574403
 H   -2.905100312327    2.106668011898    0.261289712266
 H   -3.240409357478   -0.437182471838    0.234603183926
LI    3.429047686762    2.213194168503   -4.893295485603
