16

 N   -2.337742261679    0.021962426065    0.246884970127
 C   -1.105616529412   -0.608327853943    0.247839930435
 N   -0.835475593286   -1.929213328911    0.244375741488
 C    0.492653575177   -2.147407221661    0.259943170151
 H    0.806461858147   -3.194085954151    0.263322740842
 N    1.505003018218   -1.239426264520    0.273914440426
 C    1.192786274311    0.071394818729    0.269268036526
 N    2.200413229113    0.995893456034    0.227446199595
 H    3.131864766500    0.665363347282    0.449904133728
 H    1.967675723086    1.955864211073    0.452256445035
 C   -0.172714566563    0.448088672596    0.260496948811
 N   -0.796243877754    1.687054373226    0.270375157829
 C   -2.096169364911    1.378974984865    0.261920304671
 H   -2.906222893698    2.105555785967    0.265968442534
 H   -3.241531938849   -0.438294697769    0.239281914194
LI    3.450656806803    2.234603951581   -4.983358661908
