16

 N   -2.339987424423    0.019737974203    0.256242430664
 C   -1.107861692156   -0.610552305805    0.257197390972
 N   -0.837720756030   -1.931437780773    0.253733202025
 C    0.490408412433   -2.149631673523    0.269300630688
 H    0.804216695403   -3.196310406013    0.272680201379
 N    1.502757855474   -1.241650716382    0.283271900963
 C    1.190541111567    0.069170366867    0.278625497063
 N    2.198168066369    0.993669004172    0.236803660132
 H    3.129619603756    0.663138895420    0.459261594265
 H    1.965430560342    1.953639759211    0.461613905572
 C   -0.174959729307    0.445864220734    0.269854409348
 N   -0.798489040498    1.684829921364    0.279732618366
 C   -2.098414527655    1.376750533003    0.271277765208
 H   -2.908468056442    2.103331334105    0.275325903071
 H   -3.243777101593   -0.440519149631    0.248639374731
LI    3.493875046884    2.277423517739   -5.163485014517
