16

 N   -2.344477749910    0.015289070478    0.274957351736
 C   -1.112352017643   -0.615001209530    0.275912312044
 N   -0.842211081517   -1.935886684498    0.272448123097
 C    0.485918086946   -2.154080577248    0.288015551760
 H    0.799726369916   -3.200759309738    0.291395122451
 N    1.498267529987   -1.246099620107    0.301986822035
 C    1.186050786080    0.064721463142    0.297340418135
 N    2.193677740882    0.989220100447    0.255518581204
 H    3.125129278269    0.658689991695    0.477976515337
 H    1.960940234855    1.949190855486    0.480328826644
 C   -0.179450054794    0.441415317009    0.288569330420
 N   -0.802979365985    1.680381017639    0.298447539438
 C   -2.102904853142    1.372301629278    0.289992686280
 H   -2.912958381929    2.098882430380    0.294040824143
 H   -3.248267427080   -0.444968053356    0.267354295803
LI    3.580311527047    2.363062650054   -5.523737719736
