16

 N   -2.354580982256    0.005279037098    0.317065924150
 C   -1.122455249989   -0.625011242910    0.318020884458
 N   -0.852314313863   -1.945896717878    0.314556695511
 C    0.475814854600   -2.164090610628    0.330124124174
 H    0.789623137570   -3.210769343118    0.333503694865
 N    1.488164297641   -1.256109653487    0.344095394449
 C    1.175947553734    0.054711429762    0.339448990549
 N    2.183574508536    0.979210067067    0.297627153618
 H    3.115026045923    0.648679958315    0.520085087751
 H    1.950837002509    1.939180822106    0.522437399058
 C   -0.189553287140    0.431405283629    0.330677902834
 N   -0.813082598331    1.670370984259    0.340556111852
 C   -2.113008085488    1.362291595898    0.332101258694
 H   -2.923061614275    2.088872397000    0.336149396557
 H   -3.258370659426   -0.454978086736    0.309462868217
LI    3.774793607414    2.555750697764   -6.334306306477
