16

 N   -2.359071307743    0.000830133374    0.335780845222
 C   -1.126945575476   -0.629460146634    0.336735805530
 N   -0.856804639350   -1.950345621602    0.333271616583
 C    0.471324529113   -2.168539514352    0.348839045246
 H    0.785132812083   -3.215218246842    0.352218615937
 N    1.483673972154   -1.260558557211    0.362810315521
 C    1.171457228247    0.050262526038    0.358163911621
 N    2.179084183049    0.974761163343    0.316342074690
 H    3.110535720436    0.644231054591    0.538800008823
 H    1.946346677022    1.934731918382    0.541152320130
 C   -0.194043612627    0.426956379905    0.349392823906
 N   -0.817572923818    1.665922080535    0.359271032924
 C   -2.117498410975    1.357842692174    0.350816179766
 H   -2.927551939762    2.084423493276    0.354864317629
 H   -3.262860984913   -0.459426990460    0.328177789289
LI    3.861230087578    2.641389830079   -6.694559011696
