16

 N   -2.360193889115   -0.000282092557    0.340459575490
 C   -1.128068156848   -0.630572372565    0.341414535798
 N   -0.857927220722   -1.951457847533    0.337950346851
 C    0.470201947741   -2.169651740283    0.353517775514
 H    0.784010230711   -3.216330472773    0.356897346205
 N    1.482551390782   -1.261670783142    0.367489045789
 C    1.170334646875    0.049150300107    0.362842641889
 N    2.177961601677    0.973648937412    0.321020804958
 H    3.109413139064    0.643118828660    0.543478739091
 H    1.945224095650    1.933619692451    0.545831050398
 C   -0.195166193999    0.425844153974    0.354071554174
 N   -0.818695505190    1.664809854604    0.363949763192
 C   -2.118620992347    1.356730466243    0.355494910034
 H   -2.928674521134    2.083311267345    0.359543047897
 H   -3.263983566285   -0.460539216391    0.332856519557
LI    3.882839207618    2.662799613158   -6.784622188000
