16

 N   -2.362439051859   -0.002506544420    0.349817036027
 C   -1.130313319592   -0.632796824428    0.350771996335
 N   -0.860172383466   -1.953682299396    0.347307807388
 C    0.467956784997   -2.171876192146    0.362875236051
 H    0.781765067967   -3.218554924636    0.366254806742
 N    1.480306228038   -1.263895235005    0.376846506326
 C    1.168089484131    0.046925848244    0.372200102426
 N    2.175716438933    0.971424485549    0.330378265495
 H    3.107167976320    0.640894376797    0.552836199628
 H    1.942978932906    1.931395240588    0.555188510935
 C   -0.197411356743    0.423619702111    0.363429014711
 N   -0.820940667934    1.662585402741    0.373307223729
 C   -2.120866155091    1.354506014380    0.364852370571
 H   -2.930919683878    2.081086815482    0.368900508434
 H   -3.266228729029   -0.462763668254    0.342213980094
LI    3.926057447700    2.705619179316   -6.964748540610
