16

 N   -2.363561633230   -0.003618770351    0.354495766295
 C   -1.131435900963   -0.633909050359    0.355450726603
 N   -0.861294964837   -1.954794525327    0.351986537656
 C    0.466834203626   -2.172988418077    0.367553966319
 H    0.780642486596   -3.219667150567    0.370933537010
 N    1.479183646667   -1.265007460936    0.381525236594
 C    1.166966902760    0.045813622313    0.376878832694
 N    2.174593857562    0.970312259618    0.335056995763
 H    3.106045394949    0.639782150866    0.557514929896
 H    1.941856351535    1.930283014657    0.559867241203
 C   -0.198533938114    0.422507476180    0.368107744979
 N   -0.822063249305    1.661473176810    0.377985953997
 C   -2.121988736462    1.353393788449    0.369531100839
 H   -2.932042265249    2.079974589551    0.373579238702
 H   -3.267351310400   -0.463875894185    0.346892710362
LI    3.947666567741    2.727028962395   -7.054811716914
