16

 N   -2.364684214602   -0.004730996282    0.359174496563
 C   -1.132558482335   -0.635021276290    0.360129456871
 N   -0.862417546209   -1.955906751258    0.356665267924
 C    0.465711622254   -2.174100644008    0.372232696587
 H    0.779519905224   -3.220779376498    0.375612267278
 N    1.478061065295   -1.266119686867    0.386203966862
 C    1.165844321388    0.044701396382    0.381557562962
 N    2.173471276190    0.969200033687    0.339735726031
 H    3.104922813577    0.638669924935    0.562193660164
 H    1.940733770163    1.929170788726    0.564545971471
 C   -0.199656519486    0.421395250249    0.372786475247
 N   -0.823185830677    1.660360950879    0.382664684265
 C   -2.123111317834    1.352281562518    0.374209831107
 H   -2.933164846621    2.078862363620    0.378257968970
 H   -3.268473891772   -0.464988120116    0.351571440630
LI    3.969275687781    2.748438745473   -7.144874893219
