16

 N   -2.365806795974   -0.005843222213    0.363853226831
 C   -1.133681063707   -0.636133502221    0.364808187139
 N   -0.863540127581   -1.957018977189    0.361343998192
 C    0.464589040882   -2.175212869939    0.376911426855
 H    0.778397323852   -3.221891602429    0.380290997546
 N    1.476938483923   -1.267231912798    0.390882697130
 C    1.164721740016    0.043589170451    0.386236293230
 N    2.172348694818    0.968087807756    0.344414456299
 H    3.103800232205    0.637557699004    0.566872390432
 H    1.939611188791    1.928058562795    0.569224701739
 C   -0.200779100858    0.420283024318    0.377465205515
 N   -0.824308412049    1.659248724948    0.387343414533
 C   -2.124233899206    1.351169336587    0.378888561375
 H   -2.934287427993    2.077750137689    0.382936699238
 H   -3.269596473144   -0.466100346047    0.356250170898
LI    3.990884807822    2.769848528552   -7.234938069524
