16

 N   -2.369174540089   -0.009179900006    0.377889417636
 C   -1.137048807822   -0.639470180014    0.378844377944
 N   -0.866907871696   -1.960355654982    0.375380188997
 C    0.461221296767   -2.178549547732    0.390947617660
 H    0.775029579737   -3.225228280222    0.394327188351
 N    1.473570739808   -1.270568590591    0.404918887935
 C    1.161353995901    0.040252492658    0.400272484035
 N    2.168980950703    0.964751129963    0.358450647104
 H    3.100432488090    0.634221021211    0.580908581237
 H    1.936243444676    1.924721885002    0.583260892544
 C   -0.204146844973    0.416946346525    0.391501396320
 N   -0.827676156164    1.655912047155    0.401379605338
 C   -2.127601643321    1.347832658794    0.392924752180
 H   -2.937655172108    2.074413459896    0.396972890043
 H   -3.272964217259   -0.469437023840    0.370286361703
LI    4.055712167944    2.834077877789   -7.505127598437
