16

 N   -2.371419702833   -0.011404351869    0.387246878172
 C   -1.139293970566   -0.641694631877    0.388201838480
 N   -0.869153034440   -1.962580106845    0.384737649533
 C    0.458976134023   -2.180773999595    0.400305078196
 H    0.772784416993   -3.227452732085    0.403684648887
 N    1.471325577064   -1.272793042454    0.414276348471
 C    1.159108833157    0.038028040795    0.409629944571
 N    2.166735787959    0.962526678100    0.367808107640
 H    3.098187325346    0.631996569348    0.590266041773
 H    1.933998281932    1.922497433139    0.592618353080
 C   -0.206392007717    0.414721894662    0.400858856856
 N   -0.829921318908    1.653687595292    0.410737065874
 C   -2.129846806065    1.345608206931    0.402282212716
 H   -2.939900334852    2.072189008033    0.406330350579
 H   -3.275209380003   -0.471661475703    0.379643822239
LI    4.098930408026    2.876897443946   -7.685253951047
