16

 N   -2.377032609692   -0.016965481524    0.410640529513
 C   -1.144906877425   -0.647255761532    0.411595489821
 N   -0.874765941299   -1.968141236500    0.408131300874
 C    0.453363227164   -2.186335129250    0.423698729537
 H    0.767171510134   -3.233013861740    0.427078300228
 N    1.465712670205   -1.278354172109    0.437669999812
 C    1.153495926298    0.032466911140    0.433023595912
 N    2.161122881100    0.956965548445    0.391201758981
 H    3.092574418487    0.626435439693    0.613659693114
 H    1.928385375073    1.916936303484    0.616012004421
 C   -0.212004914576    0.409160765007    0.424252508197
 N   -0.835534225767    1.648126465637    0.434130717215
 C   -2.135459712924    1.340047077276    0.425675864057
 H   -2.945513241711    2.066627878378    0.429724001920
 H   -3.280822286862   -0.477222605358    0.403037473580
LI    4.206976008230    2.983946359340   -8.135569832570
