16

 N   -2.378155191064   -0.018077707455    0.415319259781
 C   -1.146029458797   -0.648367987463    0.416274220089
 N   -0.875888522671   -1.969253462431    0.412810031142
 C    0.452240645792   -2.187447355181    0.428377459805
 H    0.766048928762   -3.234126087671    0.431757030496
 N    1.464590088833   -1.279466398040    0.442348730080
 C    1.152373344926    0.031354685209    0.437702326180
 N    2.160000299728    0.955853322514    0.395880489249
 H    3.091451837115    0.625323213762    0.618338423382
 H    1.927262793701    1.915824077553    0.620690734689
 C   -0.213127495948    0.408048539076    0.428931238465
 N   -0.836656807139    1.647014239706    0.438809447483
 C   -2.136582294296    1.338934851345    0.430354594325
 H   -2.946635823083    2.065515652447    0.434402732188
 H   -3.281944868234   -0.478334831289    0.407716203848
LI    4.228585128271    3.005356142419   -8.225633008874
