16

 N   -2.379277772435   -0.019189933387    0.419997990049
 C   -1.147152040168   -0.649480213395    0.420952950357
 N   -0.877011104042   -1.970365688363    0.417488761410
 C    0.451118064421   -2.188559581113    0.433056190073
 H    0.764926347391   -3.235238313603    0.436435760764
 N    1.463467507462   -1.280578623972    0.447027460348
 C    1.151250763555    0.030242459277    0.442381056448
 N    2.158877718357    0.954741096582    0.400559219517
 H    3.090329255744    0.624210987830    0.623017153650
 H    1.926140212330    1.914711851621    0.625369464957
 C   -0.214250077319    0.406936313144    0.433609968733
 N   -0.837779388510    1.645902013774    0.443488177751
 C   -2.137704875667    1.337822625413    0.435033324593
 H   -2.947758404454    2.064403426515    0.439081462456
 H   -3.283067449605   -0.479447057221    0.412394934116
LI    4.250194248311    3.026765925498   -8.315696185179
