16

 N   -2.381522935179   -0.021414385249    0.429355450585
 C   -1.149397202912   -0.651704665257    0.430310410893
 N   -0.879256266786   -1.972590140225    0.426846221946
 C    0.448872901677   -2.190784032975    0.442413650609
 H    0.762681184647   -3.237462765465    0.445793221300
 N    1.461222344718   -1.282803075834    0.456384920884
 C    1.149005600811    0.028018007415    0.451738516984
 N    2.156632555613    0.952516644720    0.409916680053
 H    3.088084093000    0.621986535968    0.632374614186
 H    1.923895049586    1.912487399759    0.634726925493
 C   -0.216495240063    0.404711861282    0.442967429269
 N   -0.840024551254    1.643677561912    0.452845638287
 C   -2.139950038411    1.335598173551    0.444390785129
 H   -2.950003567198    2.062178974653    0.448438922992
 H   -3.285312612349   -0.481671509083    0.421752394652
LI    4.293412488393    3.069585491656   -8.495822537788
