16

 N   -2.382645516551   -0.022526611180    0.434034180854
 C   -1.150519784284   -0.652816891188    0.434989141162
 N   -0.880378848158   -1.973702366156    0.431524952215
 C    0.447750320305   -2.191896258906    0.447092380878
 H    0.761558603275   -3.238574991396    0.450471951569
 N    1.460099763346   -1.283915301765    0.461063651153
 C    1.147883019439    0.026905781484    0.456417247253
 N    2.155509974241    0.951404418789    0.414595410322
 H    3.086961511628    0.620874310037    0.637053344455
 H    1.922772468214    1.911375173828    0.639405655762
 C   -0.217617821435    0.403599635351    0.447646159538
 N   -0.841147132626    1.642565335981    0.457524368556
 C   -2.141072619783    1.334485947620    0.449069515398
 H   -2.951126148570    2.061066748722    0.453117653261
 H   -3.286435193721   -0.482783735014    0.426431124921
LI    4.315021608434    3.090995274735   -8.585885714093
