16

 N   -2.384890679294   -0.024751063042    0.443391641390
 C   -1.152764947027   -0.655041343050    0.444346601698
 N   -0.882624010901   -1.975926818018    0.440882412751
 C    0.445505157562   -2.194120710768    0.456449841414
 H    0.759313440532   -3.240799443258    0.459829412105
 N    1.457854600603   -1.286139753627    0.470421111689
 C    1.145637856696    0.024681329622    0.465774707789
 N    2.153264811498    0.949179966927    0.423952870858
 H    3.084716348885    0.618649858175    0.646410804991
 H    1.920527305471    1.909150721966    0.648763116298
 C   -0.219862984178    0.401375183489    0.457003620074
 N   -0.843392295369    1.640340884119    0.466881829092
 C   -2.143317782526    1.332261495758    0.458426975934
 H   -2.953371311313    2.058842296860    0.462475113797
 H   -3.288680356464   -0.485008186876    0.435788585457
LI    4.358239848515    3.133814840892   -8.766012066702
