27

 N    0.936670564857    3.795499296232    0.087758705859
 C    0.096070564857    4.867419296232    0.050338705859
 H    0.553400564857    5.856389296232    0.085858705859
 C    0.488610564857    2.475019296232    0.049648705859
 O    1.326560564857    1.553739296232    0.088358705859
 N   -0.867969435143    2.252709296232   -0.029701294141
 C   -1.700289435143    3.300219296232   -0.067461294141
 N   -3.024349435143    3.036869296232   -0.146981294141
 H   -3.342289435143    2.077299296232   -0.175601294141
 H   -3.708079435143    3.779529296232   -0.179391294141
 C   -1.255289435143    4.665819296232   -0.028161294141
 H   -1.949229435143    5.503849296232   -0.059721294141
 H    1.944020564857    3.914839296232    0.146078705859
 K   -0.309689435143   -0.362730703768   -0.020631294141
 O   -1.217884528763   -1.426460971802   -0.081125829361
 C   -0.379946848555   -2.347739124529   -0.042416503649
 N   -0.828008008272   -3.668211342661   -0.080520596524
 H   -1.835358125898   -3.787553778745   -0.138841847949
 C    0.012591998828   -4.740136855140   -0.043098989675
 H   -0.444747337652   -5.729111714987   -0.078622084974
 C    1.363954397021   -4.538542130552    0.035406301036
 H    2.057889870747   -5.376582562041    0.066962815355
 C    1.808951893772   -3.172944897191    0.074705158787
 N    0.976637790997   -2.125435756677    0.036939600889
 N    3.133017271047   -2.909599641923    0.154226406446
 H    3.450956774382   -1.950025471865    0.182846727486
 H    3.816739953096   -3.652265749230    0.186632381371
