27

 N    1.074642021692    3.957099392720    0.096948932951
 C    0.234042021692    5.029019392720    0.059528932951
 H    0.691372021692    6.017989392720    0.095048932951
 C    0.626582021692    2.636619392720    0.058838932951
 O    1.464532021692    1.715339392720    0.097548932951
 N   -0.729997978308    2.414309392720   -0.020511067049
 C   -1.562317978308    3.461819392720   -0.058271067049
 N   -2.886377978308    3.198469392720   -0.137791067049
 H   -3.204317978308    2.238899392720   -0.166411067049
 H   -3.570107978308    3.941129392720   -0.170201067049
 C   -1.117317978308    4.827419392720   -0.018971067049
 H   -1.811257978308    5.665449392720   -0.050531067049
 H    2.081992021692    4.076439392720    0.155268932951
 K   -0.171717978308   -0.201130607280   -0.011441067049
 O   -1.404268462507   -1.644764542469   -0.093540793419
 C   -0.566330782299   -2.566042695195   -0.054831467706
 N   -1.014391942016   -3.886514913328   -0.092935560582
 H   -2.021742059642   -4.005857349411   -0.151256812006
 C   -0.173791934916   -4.958440425807   -0.055513953732
 H   -0.631131271397   -5.947415285653   -0.091037049031
 C    1.177570463277   -4.756845701219    0.022991336979
 H    1.871505937002   -5.594886132707    0.054547851298
 C    1.622567960027   -3.391248467857    0.062290194729
 N    0.790253857253   -2.343739327344    0.024524636832
 N    2.946633337303   -3.127903212590    0.141811442389
 H    3.264572840638   -2.168329042532    0.170431763429
 H    3.630356019351   -3.870569319896    0.174217417313
