27

 N    1.157424895792    4.054059450614    0.102463069207
 C    0.316824895792    5.125979450614    0.065043069207
 H    0.774154895792    6.114949450614    0.100563069207
 C    0.709364895792    2.733579450614    0.064353069207
 O    1.547314895792    1.812299450614    0.103063069207
 N   -0.647215104208    2.511269450614   -0.014996930793
 C   -1.479535104208    3.558779450614   -0.052756930793
 N   -2.803595104208    3.295429450614   -0.132276930793
 H   -3.121535104208    2.335859450614   -0.160896930793
 H   -3.487325104208    4.038089450614   -0.164686930793
 C   -1.034535104208    4.924379450614   -0.013456930793
 H   -1.728475104208    5.762409450614   -0.045016930793
 H    2.164774895792    4.173399450614    0.160783069207
 K   -0.088935104208   -0.104170549386   -0.005926930793
 O   -1.516098822754   -1.775746684869   -0.100989771853
 C   -0.678161142546   -2.697024837595   -0.062280446141
 N   -1.126222302262   -4.017497055727   -0.100384539016
 H   -2.133572419889   -4.136839491811   -0.158705790440
 C   -0.285622295162   -5.089422568207   -0.062962932167
 H   -0.742961631643   -6.078397428053   -0.098486027466
 C    1.065740103030   -4.887827843619    0.015542358544
 H    1.759675576756   -5.725868275107    0.047098872863
 C    1.510737599781   -3.522230610257    0.054841216295
 N    0.678423497006   -2.474721469744    0.017075658397
 N    2.834802977056   -3.258885354990    0.134362463955
 H    3.152742480391   -2.299311184932    0.162982784995
 H    3.518525659105   -4.001551462296    0.166768438879
