27

 N    1.212613478526    4.118699489209    0.106139160044
 C    0.372013478526    5.190619489209    0.068719160044
 H    0.829343478526    6.179589489209    0.104239160044
 C    0.764553478526    2.798219489209    0.068029160044
 O    1.602503478526    1.876939489209    0.106739160044
 N   -0.592026521474    2.575909489209   -0.011320839956
 C   -1.424346521474    3.623419489209   -0.049080839956
 N   -2.748406521474    3.360069489209   -0.128600839956
 H   -3.066346521474    2.400499489209   -0.157220839956
 H   -3.432136521474    4.102729489209   -0.161010839956
 C   -0.979346521474    4.989019489209   -0.009780839956
 H   -1.673286521474    5.827049489209   -0.041340839956
 H    2.219963478526    4.238039489209    0.164459160044
 K   -0.033746521474   -0.039530510791   -0.002250839956
 O   -1.590652396252   -1.863068113135   -0.105955757476
 C   -0.752714716044   -2.784346265861   -0.067246431764
 N   -1.200775875760   -4.104818483994   -0.105350524639
 H   -2.208125993387   -4.224160920078   -0.163671776063
 C   -0.360175868660   -5.176743996473   -0.067928917790
 H   -0.817515205141   -6.165718856319   -0.103452013088
 C    0.991186529532   -4.975149271885    0.010576372921
 H    1.685122003258   -5.813189703373    0.042132887240
 C    1.436184026283   -3.609552038524    0.049875230672
 N    0.603869923509   -2.562042898010    0.012109672775
 N    2.760249403558   -3.346206783256    0.129396478332
 H    3.078188906894   -2.386632613198    0.158016799372
 H    3.443972085607   -4.088872890563    0.161802453256
