27

 N    1.267802061260    4.183339527804    0.109815250881
 C    0.427202061260    5.255259527804    0.072395250881
 H    0.884532061260    6.244229527804    0.107915250881
 C    0.819742061260    2.862859527804    0.071705250881
 O    1.657692061260    1.941579527804    0.110415250881
 N   -0.536837938740    2.640549527804   -0.007644749119
 C   -1.369157938740    3.688059527804   -0.045404749119
 N   -2.693217938740    3.424709527804   -0.124924749119
 H   -3.011157938740    2.465139527804   -0.153544749119
 H   -3.376947938740    4.167369527804   -0.157334749119
 C   -0.924157938740    5.053659527804   -0.006104749119
 H   -1.618097938740    5.891689527804   -0.037664749119
 H    2.275152061260    4.302679527804    0.168135250881
 K    0.021442061260    0.025109527804    0.001425250881
 O   -1.665205969750   -1.950389541402   -0.110921743099
 C   -0.827268289542   -2.871667694128   -0.072212417387
 N   -1.275329449258   -4.192139912261   -0.110316510262
 H   -2.282679566884   -4.311482348344   -0.168637761686
 C   -0.434729442158   -5.264065424740   -0.072894903413
 H   -0.892068778639   -6.253040284586   -0.108417998711
 C    0.916632956035   -5.062470700152    0.005610387298
 H    1.610568429760   -5.900511131640    0.037166901617
 C    1.361630452785   -3.696873466790    0.044909245049
 N    0.529316350011   -2.649364326277    0.007143687152
 N    2.685695830061   -3.433528211523    0.124430492709
 H    3.003635333396   -2.473954041465    0.153050813749
 H    3.369418512109   -4.176194318829    0.156836467633
