27

 N    1.295396352627    4.215659547102    0.111653296300
 C    0.454796352627    5.287579547102    0.074233296300
 H    0.912126352627    6.276549547102    0.109753296300
 C    0.847336352627    2.895179547102    0.073543296300
 O    1.685286352627    1.973899547102    0.112253296300
 N   -0.509243647373    2.672869547102   -0.005806703700
 C   -1.341563647373    3.720379547102   -0.043566703700
 N   -2.665623647373    3.457029547102   -0.123086703700
 H   -2.983563647373    2.497459547102   -0.151706703700
 H   -3.349353647373    4.199689547102   -0.155496703700
 C   -0.896563647373    5.085979547102   -0.004266703700
 H   -1.590503647373    5.924009547102   -0.035826703700
 H    2.302746352627    4.334999547102    0.169973296300
 K    0.049036352627    0.057429547102    0.003263296300
 O   -1.702482756498   -1.994050255535   -0.113404735910
 C   -0.864545076290   -2.915328408261   -0.074695410198
 N   -1.312606236007   -4.235800626394   -0.112799503073
 H   -2.319956353633   -4.355143062478   -0.171120754498
 C   -0.472006228907   -5.307726138873   -0.075377896224
 H   -0.929345565388   -6.296700998719   -0.110900991523
 C    0.879356169286   -5.106131414285    0.003127394487
 H    1.573291643011   -5.944171845773    0.034683908806
 C    1.324353666037   -3.740534180923    0.042426252238
 N    0.492039563262   -2.693025040410    0.004660694340
 N    2.648419043312   -3.477188925656    0.121947499897
 H    2.966358546647   -2.517614755598    0.150567820937
 H    3.332141725360   -4.219855032962    0.154353474822
