27

 N    1.322990643994    4.247979566400    0.113491341718
 C    0.482390643994    5.319899566400    0.076071341718
 H    0.939720643994    6.308869566400    0.111591341718
 C    0.874930643994    2.927499566400    0.075381341718
 O    1.712880643994    2.006219566400    0.114091341718
 N   -0.481649356006    2.705189566400   -0.003968658282
 C   -1.313969356006    3.752699566400   -0.041728658282
 N   -2.638029356006    3.489349566400   -0.121248658282
 H   -2.955969356006    2.529779566400   -0.149868658282
 H   -3.321759356006    4.232009566400   -0.153658658282
 C   -0.868969356006    5.118299566400   -0.002428658282
 H   -1.562909356006    5.956329566400   -0.033988658282
 H    2.330340643994    4.367319566400    0.171811341718
 K    0.076630643994    0.089749566400    0.005101341718
 O   -1.739759543247   -2.037710969668   -0.115887728722
 C   -0.901821863039   -2.958989122395   -0.077178403010
 N   -1.349883022756   -4.279461340527   -0.115282495885
 H   -2.357233140382   -4.398803776611   -0.173603747309
 C   -0.509283015656   -5.351386853007   -0.077860889035
 H   -0.966622352136   -6.340361712853   -0.113383984334
 C    0.842079382537   -5.149792128418    0.000644401675
 H    1.536014856263   -5.987832559907    0.032200915995
 C    1.287076879288   -3.784194895057    0.039943259426
 N    0.454762776513   -2.736685754543    0.002177701529
 N    2.611142256563   -3.520849639789    0.119464507086
 H    2.929081759898   -2.561275469731    0.148084828126
 H    3.294864938612   -4.263515747096    0.151870482010
