27

 N    1.350584935361    4.280299585698    0.115329387137
 C    0.509984935361    5.352219585698    0.077909387137
 H    0.967314935361    6.341189585698    0.113429387137
 C    0.902524935361    2.959819585698    0.077219387137
 O    1.740474935361    2.038539585698    0.115929387137
 N   -0.454055064639    2.737509585698   -0.002130612863
 C   -1.286375064639    3.785019585698   -0.039890612863
 N   -2.610435064639    3.521669585698   -0.119410612863
 H   -2.928375064639    2.562099585698   -0.148030612863
 H   -3.294165064639    4.264329585698   -0.151820612863
 C   -0.841375064639    5.150619585698   -0.000590612863
 H   -1.535315064639    5.988649585698   -0.032150612863
 H    2.357934935361    4.399639585698    0.173649387137
 K    0.104224935361    0.122069585698    0.006939387137
 O   -1.777036329996   -2.081371683802   -0.118370721533
 C   -0.939098649788   -3.002649836528   -0.079661395821
 N   -1.387159809505   -4.323122054660   -0.117765488696
 H   -2.394509927131   -4.442464490744   -0.176086740121
 C   -0.546559802404   -5.395047567140   -0.080343881847
 H   -1.003899138885   -6.384022426986   -0.115866977146
 C    0.804802595788   -5.193452842552   -0.001838591136
 H    1.498738069514   -6.031493274040    0.029717923183
 C    1.249800092539   -3.827855609190    0.037460266615
 N    0.417485989764   -2.780346468677   -0.000305291283
 N    2.573865469814   -3.564510353923    0.116981514274
 H    2.891804973149   -2.604936183865    0.145601835314
 H    3.257588151863   -4.307176461229    0.149387489199
