27

 N    1.460962100828    4.409579662889    0.122681568811
 C    0.620362100828    5.481499662889    0.085261568811
 H    1.077692100828    6.470469662889    0.120781568811
 C    1.012902100828    3.089099662889    0.084571568811
 O    1.850852100828    2.167819662889    0.123281568811
 N   -0.343677899172    2.866789662889    0.005221568811
 C   -1.175997899172    3.914299662889   -0.032538431189
 N   -2.500057899172    3.650949662889   -0.112058431189
 H   -2.817997899172    2.691379662889   -0.140678431189
 H   -3.183787899172    4.393609662889   -0.144468431189
 C   -0.730997899172    5.279899662889    0.006761568811
 H   -1.424937899172    6.117929662889   -0.024798431189
 H    2.468312100828    4.528919662889    0.181001568811
 K    0.214602100828    0.251349662889    0.014291568811
 O   -1.926143476992   -2.256014540335   -0.128302692779
 C   -1.088205796784   -3.177292693061   -0.089593367067
 N   -1.536266956500   -4.497764911194   -0.127697459942
 H   -2.543617074126   -4.617107347277   -0.186018711367
 C   -0.695666949400   -5.569690423673   -0.090275853093
 H   -1.153006285881   -6.558665283519   -0.125798948392
 C    0.655695448793   -5.368095699085   -0.011770562382
 H    1.349630922518   -6.206136130573    0.019785951937
 C    1.100692945543   -4.002498465723    0.027528295369
 N    0.268378842769   -2.954989325210   -0.010237262529
 N    2.424758322819   -3.739153210456    0.107049543029
 H    2.742697826154   -2.779579040398    0.135669864068
 H    3.108481004867   -4.481819317762    0.139455517953
