27

 N    1.571339266296    4.538859740079    0.130033750485
 C    0.730739266296    5.610779740079    0.092613750485
 H    1.188069266296    6.599749740079    0.128133750485
 C    1.123279266296    3.218379740079    0.091923750485
 O    1.961229266296    2.297099740079    0.130633750485
 N   -0.233300733704    2.996069740079    0.012573750485
 C   -1.065620733704    4.043579740079   -0.025186249515
 N   -2.389680733704    3.780229740079   -0.104706249515
 H   -2.707620733704    2.820659740079   -0.133326249515
 H   -3.073410733704    4.522889740079   -0.137116249515
 C   -0.620620733704    5.409179740079    0.014113750485
 H   -1.314560733704    6.247209740079   -0.017446249515
 H    2.578689266296    4.658199740079    0.188353750485
 K    0.324979266296    0.380629740079    0.021643750485
 O   -2.075250623987   -2.430657396868   -0.138234664025
 C   -1.237312943779   -3.351935549594   -0.099525338313
 N   -1.685374103495   -4.672407767727   -0.137629431188
 H   -2.692724221122   -4.791750203811   -0.195950682612
 C   -0.844774096395   -5.744333280206   -0.100207824339
 H   -1.302113432876   -6.733308140052   -0.135730919638
 C    0.506588301797   -5.542738555618   -0.021702533628
 H    1.200523775523   -6.380778987106    0.009853980691
 C    0.951585798548   -4.177141322256    0.017596324123
 N    0.119271695773   -3.129632181743   -0.020169233774
 N    2.275651175823   -3.913796066989    0.097117571783
 H    2.593590679158   -2.954221896931    0.125737892823
 H    2.959373857872   -4.656462174295    0.129523546707
