27

 N    1.598933557663    4.571179759377    0.131871795903
 C    0.758333557663    5.643099759377    0.094451795903
 H    1.215663557663    6.632069759377    0.129971795903
 C    1.150873557663    3.250699759377    0.093761795903
 O    1.988823557663    2.329419759377    0.132471795903
 N   -0.205706442337    3.028389759377    0.014411795903
 C   -1.038026442337    4.075899759377   -0.023348204097
 N   -2.362086442337    3.812549759377   -0.102868204097
 H   -2.680026442337    2.852979759377   -0.131488204097
 H   -3.045816442337    4.555209759377   -0.135278204097
 C   -0.593026442337    5.441499759377    0.015951795903
 H   -1.286966442337    6.279529759377   -0.015608204097
 H    2.606283557663    4.690519759377    0.190191795903
 K    0.352573557663    0.412949759377    0.023481795903
 O   -2.112527410736   -2.474318111001   -0.140717656837
 C   -1.274589730528   -3.395596263727   -0.102008331124
 N   -1.722650890244   -4.716068481860   -0.140112423999
 H   -2.730001007871   -4.835410917944   -0.198433675424
 C   -0.882050883144   -5.787993994339   -0.102690817150
 H   -1.339390219625   -6.776968854185   -0.138213912449
 C    0.469311515048   -5.586399269751   -0.024185526439
 H    1.163246988774   -6.424439701240    0.007370987880
 C    0.914309011799   -4.220802036390    0.015113331311
 N    0.081994909024   -3.173292895876   -0.022652226586
 N    2.238374389074   -3.957456781122    0.094634578971
 H    2.556313892409   -2.997882611064    0.123254900011
 H    2.922097071123   -4.700122888429    0.127040553896
