27

 N    1.654122140396    4.635819797973    0.135547886740
 C    0.813522140396    5.707739797973    0.098127886740
 H    1.270852140396    6.696709797973    0.133647886740
 C    1.206062140396    3.315339797973    0.097437886740
 O    2.044012140396    2.394059797973    0.136147886740
 N   -0.150517859604    3.093029797973    0.018087886740
 C   -0.982837859604    4.140539797973   -0.019672113260
 N   -2.306897859604    3.877189797973   -0.099192113260
 H   -2.624837859604    2.917619797973   -0.127812113260
 H   -2.990627859604    4.619849797973   -0.131602113260
 C   -0.537837859604    5.506139797973    0.019627886740
 H   -1.231777859604    6.344169797973   -0.011932113260
 H    2.661472140396    4.755159797973    0.193867886740
 K    0.407762140396    0.477589797973    0.027157886740
 O   -2.187080984234   -2.561639539268   -0.145683642459
 C   -1.349143304026   -3.482917691994   -0.106974316747
 N   -1.797204463742   -4.803389910127   -0.145078409622
 H   -2.804554581368   -4.922732346210   -0.203399661047
 C   -0.956604456642   -5.875315422606   -0.107656802773
 H   -1.413943793123   -6.864290282452   -0.143179898072
 C    0.394757941551   -5.673720698018   -0.029151512062
 H    1.088693415276   -6.511761129506    0.002405002257
 C    0.839755438301   -4.308123464656    0.010147345689
 N    0.007441335527   -3.260614324143   -0.027618212209
 N    2.163820815577   -4.044778209389    0.089668593348
 H    2.481760318912   -3.085204039331    0.118288914388
 H    2.847543497625   -4.787444316695    0.122074568273
