27

 N    1.681716431763    4.668139817270    0.137385932159
 C    0.841116431763    5.740059817270    0.099965932159
 H    1.298446431763    6.729029817270    0.135485932159
 C    1.233656431763    3.347659817270    0.099275932159
 O    2.071606431763    2.426379817270    0.137985932159
 N   -0.122923568237    3.125349817270    0.019925932159
 C   -0.955243568237    4.172859817270   -0.017834067841
 N   -2.279303568237    3.909509817270   -0.097354067841
 H   -2.597243568237    2.949939817270   -0.125974067841
 H   -2.963033568237    4.652169817270   -0.129764067841
 C   -0.510243568237    5.538459817270    0.021465932159
 H   -1.204183568237    6.376489817270   -0.010094067841
 H    2.689066431763    4.787479817270    0.195705932159
 K    0.435356431763    0.509909817270    0.028995932159
 O   -2.224357770982   -2.605300253401   -0.148166635271
 C   -1.386420090774   -3.526578406127   -0.109457309559
 N   -1.834481250491   -4.847050624260   -0.147561402434
 H   -2.841831368117   -4.966393060344   -0.205882653858
 C   -0.993881243391   -5.918976136739   -0.110139795585
 H   -1.451220579872   -6.907950996585   -0.145662890883
 C    0.357481154802   -5.717381412151   -0.031634504874
 H    1.051416628527   -6.555421843639   -0.000077990555
 C    0.802478651552   -4.351784178789    0.007664352877
 N   -0.029835451222   -3.304275038276   -0.030101205020
 N    2.126544028828   -4.088438923522    0.087185600537
 H    2.444483532163   -3.128864753464    0.115805921577
 H    2.810266710876   -4.831105030828    0.119591575461
