27

 N    1.819687888598    4.829739913759    0.146576159252
 C    0.979087888598    5.901659913759    0.109156159252
 H    1.436417888598    6.890629913759    0.144676159252
 C    1.371627888598    3.509259913759    0.108466159252
 O    2.209577888598    2.587979913759    0.147176159252
 N    0.015047888598    3.286949913759    0.029116159252
 C   -0.817272111402    4.334459913759   -0.008643840748
 N   -2.141332111402    4.071109913759   -0.088163840748
 H   -2.459272111402    3.111539913759   -0.116783840748
 H   -2.825062111402    4.813769913759   -0.120573840748
 C   -0.372272111402    5.700059913759    0.030656159252
 H   -1.066212111402    6.538089913759   -0.000903840748
 H    2.827037888598    4.949079913759    0.204896159252
 K    0.573327888598    0.671509913759    0.038186159252
 O   -2.410741704727   -2.823603824068   -0.160581599328
 C   -1.572804024519   -3.744881976794   -0.121872273616
 N   -2.020865184235   -5.065354194926   -0.159976366491
 H   -3.028215301862   -5.184696631010   -0.218297617916
 C   -1.180265177135   -6.137279707406   -0.122554759642
 H   -1.637604513616   -7.126254567252   -0.158077854941
 C    0.171097221057   -5.935684982818   -0.044049468931
 H    0.865032694783   -6.773725414306   -0.012492954612
 C    0.616094717808   -4.570087749456   -0.004750611180
 N   -0.216219384966   -3.522578608942   -0.042516169078
 N    1.940160095083   -4.306742494189    0.074770636480
 H    2.258099598419   -3.347168324131    0.103390957519
 H    2.623882777132   -5.049408601495    0.107176611404
