27

 N    1.874876471332    4.894379952354    0.150252250089
 C    1.034276471332    5.966299952354    0.112832250089
 H    1.491606471332    6.955269952354    0.148352250089
 C    1.426816471332    3.573899952354    0.112142250089
 O    2.264766471332    2.652619952354    0.150852250089
 N    0.070236471332    3.351589952354    0.032792250089
 C   -0.762083528668    4.399099952354   -0.004967749911
 N   -2.086143528668    4.135749952354   -0.084487749911
 H   -2.404083528668    3.176179952354   -0.113107749911
 H   -2.769873528668    4.878409952354   -0.116897749911
 C   -0.317083528668    5.764699952354    0.034332250089
 H   -1.011023528668    6.602729952354    0.002772250089
 H    2.882226471332    5.013719952354    0.208572250089
 K    0.628516471332    0.736149952354    0.041862250089
 O   -2.485295278225   -2.910925252334   -0.165547584951
 C   -1.647357598016   -3.832203405060   -0.126838259239
 N   -2.095418757733   -5.152675623193   -0.164942352114
 H   -3.102768875359   -5.272018059277   -0.223263603539
 C   -1.254818750633   -6.224601135672   -0.127520745265
 H   -1.712158087114   -7.213575995518   -0.163043840564
 C    0.096543647560   -6.023006411084   -0.049015454554
 H    0.790479121285   -6.861046842572   -0.017458940235
 C    0.541541144310   -4.657409177722   -0.009716596803
 N   -0.290772958464   -3.609900037209   -0.047482154701
 N    1.865606521586   -4.394063922455    0.069804650857
 H    2.183546024921   -3.434489752397    0.098424971897
 H    2.549329203634   -5.136730029761    0.102210625781
