27

 N    1.902470762699    4.926699971652    0.152090295507
 C    1.061870762699    5.998619971652    0.114670295507
 H    1.519200762699    6.987589971652    0.150190295507
 C    1.454410762699    3.606219971652    0.113980295507
 O    2.292360762699    2.684939971652    0.152690295507
 N    0.097830762699    3.383909971652    0.034630295507
 C   -0.734489237301    4.431419971652   -0.003129704493
 N   -2.058549237301    4.168069971652   -0.082649704493
 H   -2.376489237301    3.208499971652   -0.111269704493
 H   -2.742279237301    4.910729971652   -0.115059704493
 C   -0.289489237301    5.797019971652    0.036170295507
 H   -0.983429237301    6.635049971652    0.004610295507
 H    2.909820762699    5.046039971652    0.210410295507
 K    0.656110762699    0.768469971652    0.043700295507
 O   -2.522572064973   -2.954585966468   -0.168030577763
 C   -1.684634384765   -3.875864119194   -0.129321252050
 N   -2.132695544482   -5.196336337326   -0.167425344925
 H   -3.140045662108   -5.315678773410   -0.225746596350
 C   -1.292095537382   -6.268261849806   -0.130003738076
 H   -1.749434873863   -7.257236709652   -0.165526833375
 C    0.059266860811   -6.066667125217   -0.051498447365
 H    0.753202334536   -6.904707556706   -0.019941933046
 C    0.504264357562   -4.701069891856   -0.012199589615
 N   -0.328049745213   -3.653560751342   -0.049965147512
 N    1.828329734837   -4.437724636589    0.067321658045
 H    2.146269238172   -3.478150466531    0.095941979085
 H    2.512052416885   -5.180390743895    0.099727632970
