27

 N    2.012847928166    5.055980048843    0.159442477181
 C    1.172247928166    6.127900048843    0.122022477181
 H    1.629577928166    7.116870048843    0.157542477181
 C    1.564787928166    3.735500048843    0.121332477181
 O    2.402737928166    2.814220048843    0.160042477181
 N    0.208207928166    3.513190048843    0.041982477181
 C   -0.624112071834    4.560700048843    0.004222477181
 N   -1.948172071834    4.297350048843   -0.075297522819
 H   -2.266112071834    3.337780048843   -0.103917522819
 H   -2.631902071834    5.040010048843   -0.107707522819
 C   -0.179112071834    5.926300048843    0.043522477181
 H   -0.873052071834    6.764330048843    0.011962477181
 H    3.020197928166    5.175320048843    0.217762477181
 K    0.766487928166    0.897750048843    0.051052477181
 O   -2.671679211969   -3.129228823001   -0.177962549009
 C   -1.833741531761   -4.050506975727   -0.139253223296
 N   -2.281802691477   -5.370979193859   -0.177357316171
 H   -3.289152809104   -5.490321629943   -0.235678567596
 C   -1.441202684377   -6.442904706339   -0.139935709322
 H   -1.898542020858   -7.431879566185   -0.175458804621
 C   -0.089840286185   -6.241309981751   -0.061430418611
 H    0.604095187541   -7.079350413239   -0.029873904292
 C    0.355157210566   -4.875712748389   -0.022131560861
 N   -0.477156892208   -3.828203607875   -0.059897118758
 N    1.679222587841   -4.612367493122    0.057389686799
 H    1.997162091177   -3.652793323064    0.086010007839
 H    2.362945269890   -5.355033600428    0.089795661724
