27

 N    2.068036510900    5.120620087438    0.163118568019
 C    1.227436510900    6.192540087438    0.125698568019
 H    1.684766510900    7.181510087438    0.161218568019
 C    1.619976510900    3.800140087438    0.125008568019
 O    2.457926510900    2.878860087438    0.163718568019
 N    0.263396510900    3.577830087438    0.045658568019
 C   -0.568923489100    4.625340087438    0.007898568019
 N   -1.892983489100    4.361990087438   -0.071621431981
 H   -2.210923489100    3.402420087438   -0.100241431981
 H   -2.576713489100    5.104650087438   -0.104031431981
 C   -0.123923489100    5.990940087438    0.047198568019
 H   -0.817863489100    6.828970087438    0.015638568019
 H    3.075386510900    5.239960087438    0.221438568019
 K    0.821676510900    0.962390087438    0.054728568019
 O   -2.746232785467   -3.216550251267   -0.182928534631
 C   -1.908295105259   -4.137828403993   -0.144219208919
 N   -2.356356264975   -5.458300622126   -0.182323301794
 H   -3.363706382601   -5.577643058210   -0.240644553219
 C   -1.515756257875   -6.530226134605   -0.144901694945
 H   -1.973095594356   -7.519200994451   -0.180424790244
 C   -0.164393859682   -6.328631410017   -0.066396404234
 H    0.529541614043   -7.166671841505   -0.034839889915
 C    0.280603637068   -4.963034176655   -0.027097546483
 N   -0.551710465706   -3.915525036142   -0.064863104381
 N    1.604669014344   -4.699688921388    0.052423701176
 H    1.922608517679   -3.740114751330    0.081044022216
 H    2.288391696392   -5.442355028694    0.084829676101
