27

 N    2.095630802267    5.152940106736    0.164956613437
 C    1.255030802267    6.224860106736    0.127536613437
 H    1.712360802267    7.213830106736    0.163056613437
 C    1.647570802267    3.832460106736    0.126846613437
 O    2.485520802267    2.911180106736    0.165556613437
 N    0.290990802267    3.610150106736    0.047496613437
 C   -0.541329197733    4.657660106736    0.009736613437
 N   -1.865389197733    4.394310106736   -0.069783386563
 H   -2.183329197733    3.434740106736   -0.098403386563
 H   -2.549119197733    5.136970106736   -0.102193386563
 C   -0.096329197733    6.023260106736    0.049036613437
 H   -0.790269197733    6.861290106736    0.017476613437
 H    3.102980802267    5.272280106736    0.223276613437
 K    0.849270802267    0.994710106736    0.056566613437
 O   -2.783509572215   -3.260210965401   -0.185411527443
 C   -1.945571892007   -4.181489118127   -0.146702201731
 N   -2.393633051724   -5.501961336259   -0.184806294606
 H   -3.400983169350   -5.621303772343   -0.243127546030
 C   -1.553033044624   -6.573886848739   -0.147384687756
 H   -2.010372381105   -7.562861708585   -0.182907783055
 C   -0.201670646431   -6.372292124150   -0.068879397046
 H    0.492264827294   -7.210332555639   -0.037322882726
 C    0.243326850320   -5.006694890789   -0.029580539295
 N   -0.588987252455   -3.959185750275   -0.067346097192
 N    1.567392227595   -4.743349635522    0.049940708365
 H    1.885331730930   -3.783775465464    0.078561029405
 H    2.251114909643   -5.486015742828    0.082346683289
