27

 N    2.150819385001    5.217580145332    0.168632704274
 C    1.310219385001    6.289500145332    0.131212704274
 H    1.767549385001    7.278470145332    0.166732704274
 C    1.702759385001    3.897100145332    0.130522704274
 O    2.540709385001    2.975820145332    0.169232704274
 N    0.346179385001    3.674790145332    0.051172704274
 C   -0.486140614999    4.722300145332    0.013412704274
 N   -1.810200614999    4.458950145332   -0.066107295726
 H   -2.128140614999    3.499380145332   -0.094727295726
 H   -2.493930614999    5.201610145332   -0.098517295726
 C   -0.041140614999    6.087900145332    0.052712704274
 H   -0.735080614999    6.925930145332    0.021152704274
 H    3.158169385001    5.336920145332    0.226952704274
 K    0.904459385001    1.059350145332    0.060242704274
 O   -2.858063145713   -3.347532393667   -0.190377513066
 C   -2.020125465505   -4.268810546393   -0.151668187353
 N   -2.468186625222   -5.589282764526   -0.189772280229
 H   -3.475536742848   -5.708625200610   -0.248093531653
 C   -1.627586618122   -6.661208277005   -0.152350673379
 H   -2.084925954602   -7.650183136851   -0.187873768678
 C   -0.276224219929   -6.459613552417   -0.073845382669
 H    0.417711253797   -7.297653983905   -0.042288868349
 C    0.168773276822   -5.094016319055   -0.034546524918
 N   -0.663540825953   -4.046507178542   -0.072312082815
 N    1.492838654097   -4.830671063788    0.044974722742
 H    1.810778157432   -3.871096893730    0.073595043782
 H    2.176561336146   -5.573337171094    0.077380697666
