27

 N    2.178413676367    5.249900164629    0.170470749693
 C    1.337813676367    6.321820164629    0.133050749693
 H    1.795143676367    7.310790164629    0.168570749693
 C    1.730353676367    3.929420164629    0.132360749693
 O    2.568303676367    3.008140164629    0.171070749693
 N    0.373773676367    3.707110164629    0.053010749693
 C   -0.458546323633    4.754620164629    0.015250749693
 N   -1.782606323633    4.491270164629   -0.064269250307
 H   -2.100546323633    3.531700164629   -0.092889250307
 H   -2.466336323633    5.233930164629   -0.096679250307
 C   -0.013546323633    6.120220164629    0.054550749693
 H   -0.707486323633    6.958250164629    0.022990749693
 H    3.185763676367    5.369240164629    0.228790749693
 K    0.932053676367    1.091670164629    0.062080749693
 O   -2.895339932462   -3.391193107800   -0.192860505877
 C   -2.057402252254   -4.312471260527   -0.154151180165
 N   -2.505463411970   -5.632943478659   -0.192255273040
 H   -3.512813529597   -5.752285914743   -0.250576524465
 C   -1.664863404870   -6.704868991138   -0.154833666191
 H   -2.122202741351   -7.693843850985   -0.190356761490
 C   -0.313501006678   -6.503274266550   -0.076328375480
 H    0.380434467048   -7.341314698039   -0.044771861161
 C    0.131496490073   -5.137677033189   -0.037029517729
 N   -0.700817612702   -4.090167892675   -0.074795075627
 N    1.455561867348   -4.874331777921    0.042491729930
 H    1.773501370683   -3.914757607863    0.071112050970
 H    2.139284549397   -5.616997885228    0.074897704855
