27

 N    2.261196550468    5.346860222523    0.175984885948
 C    1.420596550468    6.418780222523    0.138564885948
 H    1.877926550468    7.407750222523    0.174084885948
 C    1.813136550468    4.026380222523    0.137874885948
 O    2.651086550468    3.105100222523    0.176584885948
 N    0.456556550468    3.804070222523    0.058524885948
 C   -0.375763449532    4.851580222523    0.020764885948
 N   -1.699823449532    4.588230222523   -0.058755114052
 H   -2.017763449532    3.628660222523   -0.087375114052
 H   -2.383553449532    5.330890222523   -0.091165114052
 C    0.069236550468    6.217180222523    0.060064885948
 H   -0.624703449532    7.055210222523    0.028504885948
 H    3.268546550468    5.466200222523    0.234304885948
 K    1.014836550468    1.188630222523    0.067594885948
 O   -3.007170292709   -3.522175250200   -0.200309484312
 C   -2.169232612501   -4.443453402926   -0.161600158599
 N   -2.617293772217   -5.763925621059   -0.199704251475
 H   -3.624643889843   -5.883268057143   -0.258025502899
 C   -1.776693765117   -6.835851133538   -0.162282644625
 H   -2.234033101598   -7.824825993384   -0.197805739924
 C   -0.425331366924   -6.634256408950   -0.083777353914
 H    0.268604106801   -7.472296840438   -0.052220839595
 C    0.019666129826   -5.268659175588   -0.044478496164
 N   -0.812647972948   -4.221150035075   -0.082244054061
 N    1.343731507102   -5.005313920321    0.035042751496
 H    1.661671010437   -4.045739750263    0.063663072536
 H    2.027454189150   -5.747980027627    0.067448726420
