27

 N    2.288790841835    5.379180241820    0.177822931367
 C    1.448190841835    6.451100241820    0.140402931367
 H    1.905520841835    7.440070241820    0.175922931367
 C    1.840730841835    4.058700241820    0.139712931367
 O    2.678680841835    3.137420241820    0.178422931367
 N    0.484150841835    3.836390241820    0.060362931367
 C   -0.348169158165    4.883900241820    0.022602931367
 N   -1.672229158165    4.620550241820   -0.056917068633
 H   -1.990169158165    3.660980241820   -0.085537068633
 H   -2.355959158165    5.363210241820   -0.089327068633
 C    0.096830841835    6.249500241820    0.061902931367
 H   -0.597109158165    7.087530241820    0.030342931367
 H    3.296140841835    5.498520241820    0.236142931367
 K    1.042430841835    1.220950241820    0.069432931367
 O   -3.044447079457   -3.565835964334   -0.202792477123
 C   -2.206509399249   -4.487114117060   -0.164083151411
 N   -2.654570558966   -5.807586335192   -0.202187244286
 H   -3.661920676592   -5.926928771276   -0.260508495710
 C   -1.813970551866   -6.879511847672   -0.164765637437
 H   -2.271309888347   -7.868486707518   -0.200288732736
 C   -0.462608153673   -6.677917123083   -0.086260346726
 H    0.231327320052   -7.515957554572   -0.054703832407
 C   -0.017610656922   -5.312319889722   -0.046961488975
 N   -0.849924759697   -4.264810749208   -0.084727046873
 N    1.306454720353   -5.048974634455    0.032559758685
 H    1.624394223688   -4.089400464397    0.061180079725
 H    1.990177402401   -5.791640741761    0.064965733609
