27

 N    2.371573715936    5.476140299713    0.183337067622
 C    1.530973715936    6.548060299713    0.145917067622
 H    1.988303715936    7.537030299713    0.181437067622
 C    1.923513715936    4.155660299713    0.145227067622
 O    2.761463715936    3.234380299713    0.183937067622
 N    0.566933715936    3.933350299713    0.065877067622
 C   -0.265386284064    4.980860299713    0.028117067622
 N   -1.589446284064    4.717510299713   -0.051402932378
 H   -1.907386284064    3.757940299713   -0.080022932378
 H   -2.273176284064    5.460170299713   -0.083812932378
 C    0.179613715936    6.346460299713    0.067417067622
 H   -0.514326284064    7.184490299713    0.035857067622
 H    3.378923715936    5.595480299713    0.241657067622
 K    1.125213715936    1.317910299713    0.074947067622
 O   -3.156277439704   -3.696818106733   -0.210241455558
 C   -2.318339759496   -4.618096259460   -0.171532129845
 N   -2.766400919212   -5.938568477592   -0.209636222720
 H   -3.773751036839   -6.057910913676   -0.267957474145
 C   -1.925800912112   -7.010493990071   -0.172214615871
 H   -2.383140248593   -7.999468849918   -0.207737711170
 C   -0.574438513920   -6.808899265483   -0.093709325160
 H    0.119496959806   -7.646939696972   -0.062152810841
 C   -0.129441017169   -5.443302032122   -0.054410467410
 N   -0.961755119944   -4.395792891608   -0.092176025307
 N    1.194624360106   -5.179956776854    0.025110780250
 H    1.512563863441   -4.220382606796    0.053731101290
 H    1.878347042155   -5.922622884161    0.057516755175
