27

 N    2.399168007303    5.508460319011    0.185175113041
 C    1.558568007303    6.580380319011    0.147755113041
 H    2.015898007303    7.569350319011    0.183275113041
 C    1.951108007303    4.187980319011    0.147065113041
 O    2.789058007303    3.266700319011    0.185775113041
 N    0.594528007303    3.965670319011    0.067715113041
 C   -0.237791992697    5.013180319011    0.029955113041
 N   -1.561851992697    4.749830319011   -0.049564886959
 H   -1.879791992697    3.790260319011   -0.078184886959
 H   -2.245581992697    5.492490319011   -0.081974886959
 C    0.207208007303    6.378780319011    0.069255113041
 H   -0.486731992697    7.216810319011    0.037695113041
 H    3.406518007303    5.627800319011    0.243495113041
 K    1.152808007303    1.350230319011    0.076785113041
 O   -3.193554226453   -3.740478820867   -0.212724448369
 C   -2.355616546245   -4.661756973593   -0.174015122657
 N   -2.803677705961   -5.982229191725   -0.212119215532
 H   -3.811027823588   -6.101571627809   -0.270440466956
 C   -1.963077698861   -7.054154704205   -0.174697608683
 H   -2.420417035342   -8.043129564051   -0.210220703981
 C   -0.611715300669   -6.852559979617   -0.096192317972
 H    0.082220173057   -7.690600411105   -0.064635803653
 C   -0.166717803918   -5.486962746255   -0.056893460221
 N   -0.999031906693   -4.439453605742   -0.094659018118
 N    1.157347573357   -5.223617490988    0.022627787439
 H    1.475287076692   -4.264043320930    0.051248108479
 H    1.841070255406   -5.966283598294    0.055033762363
