27

 N    2.426762298669    5.540780338309    0.187013158459
 C    1.586162298669    6.612700338309    0.149593158459
 H    2.043492298669    7.601670338309    0.185113158459
 C    1.978702298669    4.220300338309    0.148903158459
 O    2.816652298669    3.299020338309    0.187613158459
 N    0.622122298669    3.997990338309    0.069553158459
 C   -0.210197701331    5.045500338309    0.031793158459
 N   -1.534257701331    4.782150338309   -0.047726841541
 H   -1.852197701331    3.822580338309   -0.076346841541
 H   -2.217987701331    5.524810338309   -0.080136841541
 C    0.234802298669    6.411100338309    0.071093158459
 H   -0.459137701331    7.249130338309    0.039533158459
 H    3.434112298669    5.660120338309    0.245333158459
 K    1.180402298669    1.382550338309    0.078623158459
 O   -3.230831013202   -3.784139535000   -0.215207441180
 C   -2.392893332994   -4.705417687726   -0.176498115468
 N   -2.840954492710   -6.025889905859   -0.214602208343
 H   -3.848304610337   -6.145232341942   -0.272923459768
 C   -2.000354485610   -7.097815418338   -0.177180601494
 H   -2.457693822091   -8.086790278184   -0.212703696793
 C   -0.648992087418   -6.896220693750   -0.098675310783
 H    0.044943386308   -7.734261125238   -0.067118796464
 C   -0.203994590667   -5.530623460388   -0.059376453032
 N   -1.036308693441   -4.483114319875   -0.097142010930
 N    1.120070786608   -5.267278205121    0.020144794627
 H    1.438010289944   -4.307704035063    0.048765115667
 H    1.803793468657   -6.009944312427    0.052550769552
