27

 N    2.537139464137    5.670060415500    0.194365340134
 C    1.696539464137    6.741980415500    0.156945340134
 H    2.153869464137    7.730950415500    0.192465340134
 C    2.089079464137    4.349580415500    0.156255340134
 O    2.927029464137    3.428300415500    0.194965340134
 N    0.732499464137    4.127270415500    0.076905340134
 C   -0.099820535863    5.174780415500    0.039145340134
 N   -1.423880535863    4.911430415500   -0.040374659866
 H   -1.741820535863    3.951860415500   -0.068994659866
 H   -2.107610535863    5.654090415500   -0.072784659866
 C    0.345179464137    6.540380415500    0.078445340134
 H   -0.348760535863    7.378410415500    0.046885340134
 H    3.544489464137    5.789400415500    0.252685340134
 K    1.290779464137    1.511830415500    0.085975340134
 O   -3.379938160197   -3.958782391533   -0.225139412426
 C   -2.542000479989   -4.880060544259   -0.186430086714
 N   -2.990061639706   -6.200532762392   -0.224534179589
 H   -3.997411757332   -6.319875198476   -0.282855431014
 C   -2.149461632606   -7.272458274871   -0.187112572740
 H   -2.606800969086   -8.261433134717   -0.222635668039
 C   -0.798099234413   -7.070863550283   -0.108607282029
 H   -0.104163760687   -7.908903981771   -0.077050767710
 C   -0.353101737662   -5.705266316921   -0.069308424278
 N   -1.185415840437   -4.657757176408   -0.107073982176
 N    0.970963639613   -5.441921061654    0.010212823381
 H    1.288903142948   -4.482346891596    0.038833144421
 H    1.654686321662   -6.184587168960    0.042618798306
