27

 N    2.564733755504    5.702380434798    0.196203385552
 C    1.724133755504    6.774300434798    0.158783385552
 H    2.181463755504    7.763270434798    0.194303385552
 C    2.116673755504    4.381900434798    0.158093385552
 O    2.954623755504    3.460620434798    0.196803385552
 N    0.760093755504    4.159590434798    0.078743385552
 C   -0.072226244496    5.207100434798    0.040983385552
 N   -1.396286244496    4.943750434798   -0.038536614448
 H   -1.714226244496    3.984180434798   -0.067156614448
 H   -2.080016244496    5.686410434798   -0.070946614448
 C    0.372773755504    6.572700434798    0.080283385552
 H   -0.321166244496    7.410730434798    0.048723385552
 H    3.572083755504    5.821720434798    0.254523385552
 K    1.318373755504    1.544150434798    0.087813385552
 O   -3.417214946946   -4.002443105666   -0.227622405238
 C   -2.579277266738   -4.923721258393   -0.188913079525
 N   -3.027338426454   -6.244193476525   -0.227017172401
 H   -4.034688544081   -6.363535912609   -0.285338423825
 C   -2.186738419354   -7.316118989004   -0.189595565551
 H   -2.644077755835   -8.305093848851   -0.225118660850
 C   -0.835376021162   -7.114524264416   -0.111090274841
 H   -0.141440547436   -7.952564695905   -0.079533760521
 C   -0.390378524411   -5.748927031055   -0.071791417090
 N   -1.222692627186   -4.701417890541   -0.109556974987
 N    0.933686852864   -5.485581775787    0.007729830570
 H    1.251626356199   -4.526007605729    0.036350151610
 H    1.617409534913   -6.228247883094    0.040135805494
