27

 N    2.702705212338    5.863980531286    0.205393612645
 C    1.862105212338    6.935900531286    0.167973612645
 H    2.319435212338    7.924870531286    0.203493612645
 C    2.254645212338    4.543500531286    0.167283612645
 O    3.092595212338    3.622220531286    0.205993612645
 N    0.898065212338    4.321190531286    0.087933612645
 C    0.065745212338    5.368700531286    0.050173612645
 N   -1.258314787662    5.105350531286   -0.029346387355
 H   -1.576254787662    4.145780531286   -0.057966387355
 H   -1.942044787662    5.848010531286   -0.061756387355
 C    0.510745212338    6.734300531286    0.089473612645
 H   -0.183194787662    7.572330531286    0.057913612645
 H    3.710055212338    5.983320531286    0.263713612645
 K    1.456345212338    1.705750531286    0.097003612645
 O   -3.603598880690   -4.220746676333   -0.240037369295
 C   -2.765661200482   -5.142024829059   -0.201328043583
 N   -3.213722360199   -6.462497047192   -0.239432136458
 H   -4.221072477825   -6.581839483275   -0.297753387882
 C   -2.373122353099   -7.534422559671   -0.202010529609
 H   -2.830461689580   -8.523397419517   -0.237533624908
 C   -1.021759954906   -7.332827835083   -0.123505238898
 H   -0.327824481181   -8.170868266571   -0.091948724579
 C   -0.576762458155   -5.967230601721   -0.084206381147
 N   -1.409076560930   -4.919721461208   -0.121971939045
 N    0.747302919120   -5.703885346454   -0.004685133487
 H    1.065242422455   -4.744311176396    0.023935187553
 H    1.431025601168   -6.446551453760    0.027720841437
