27

 N    2.757893795072    5.928620569882    0.209069703482
 C    1.917293795072    7.000540569882    0.171649703482
 H    2.374623795072    7.989510569882    0.207169703482
 C    2.309833795072    4.608140569882    0.170959703482
 O    3.147783795072    3.686860569882    0.209669703482
 N    0.953253795072    4.385830569882    0.091609703482
 C    0.120933795072    5.433340569882    0.053849703482
 N   -1.203126204928    5.169990569882   -0.025670296518
 H   -1.521066204928    4.210420569882   -0.054290296518
 H   -1.886856204928    5.912650569882   -0.058080296518
 C    0.565933795072    6.798940569882    0.093149703482
 H   -0.128006204928    7.636970569882    0.061589703482
 H    3.765243795072    6.047960569882    0.267389703482
 K    1.511533795072    1.770390569882    0.100679703482
 O   -3.678152454188   -4.308068104599   -0.245003354918
 C   -2.840214773980   -5.229346257326   -0.206294029206
 N   -3.288275933697   -6.549818475458   -0.244398122081
 H   -4.295626051323   -6.669160911542   -0.302719373505
 C   -2.447675926596   -7.621743987937   -0.206976515232
 H   -2.905015263077   -8.610718847784   -0.242499610530
 C   -1.096313528404   -7.420149263349   -0.128471224521
 H   -0.402378054678   -8.258189694838   -0.096914710202
 C   -0.651316031653   -6.054552029988   -0.089172366770
 N   -1.483630134428   -5.007042889474   -0.126937924667
 N    0.672749345622   -5.791206774720   -0.009651119110
 H    0.990688848957   -4.831632604662    0.018969201930
 H    1.356472027671   -6.533872882027    0.022754855814
