27

 N    2.840676669173    6.025580627775    0.214583839737
 C    2.000076669173    7.097500627775    0.177163839737
 H    2.457406669173    8.086470627775    0.212683839737
 C    2.392616669173    4.705100627775    0.176473839737
 O    3.230566669173    3.783820627775    0.215183839737
 N    1.036036669173    4.482790627775    0.097123839737
 C    0.203716669173    5.530300627775    0.059363839737
 N   -1.120343330827    5.266950627775   -0.020156160263
 H   -1.438283330827    4.307380627775   -0.048776160263
 H   -1.804073330827    6.009610627775   -0.052566160263
 C    0.648716669173    6.895900627775    0.098663839737
 H   -0.045223330827    7.733930627775    0.067103839737
 H    3.848026669173    6.144920627775    0.272903839737
 K    1.594316669173    1.867350627775    0.106193839737
 O   -3.789982814435   -4.439050246999   -0.252452333352
 C   -2.952045134227   -5.360328399725   -0.213743007640
 N   -3.400106293943   -6.680800617858   -0.251847100515
 H   -4.407456411569   -6.800143053942   -0.310168351940
 C   -2.559506286843   -7.752726130337   -0.214425493666
 H   -3.016845623324   -8.741700990183   -0.249948588965
 C   -1.208143888651   -7.551131405749   -0.135920202955
 H   -0.514208414925   -8.389171837237   -0.104363688636
 C   -0.763146391900   -6.185534172388   -0.096621345204
 N   -1.595460494674   -5.138025031874   -0.134386903102
 N    0.560918985375   -5.922188917120   -0.017100097545
 H    0.878858488711   -4.962614747062    0.011520223495
 H    1.244641667424   -6.664855024427    0.015305877380
