27

 N    2.868270960540    6.057900647073    0.216421885156
 C    2.027670960540    7.129820647073    0.179001885156
 H    2.485000960540    8.118790647073    0.214521885156
 C    2.420210960540    4.737420647073    0.178311885156
 O    3.258160960540    3.816140647073    0.217021885156
 N    1.063630960540    4.515110647073    0.098961885156
 C    0.231310960540    5.562620647073    0.061201885156
 N   -1.092749039460    5.299270647073   -0.018318114844
 H   -1.410689039460    4.339700647073   -0.046938114844
 H   -1.776479039460    6.041930647073   -0.050728114844
 C    0.676310960540    6.928220647073    0.100501885156
 H   -0.017629039460    7.766250647073    0.068941885156
 H    3.875620960540    6.177240647073    0.274741885156
 K    1.621910960540    1.899670647073    0.108031885156
 O   -3.827259601184   -4.482710961133   -0.254935326164
 C   -2.989321920976   -5.403989113859   -0.216226000452
 N   -3.437383080692   -6.724461331991   -0.254330093327
 H   -4.444733198318   -6.843803768075   -0.312651344751
 C   -2.596783073592   -7.796386844471   -0.216908486477
 H   -3.054122410073   -8.785361704317   -0.252431581776
 C   -1.245420675399   -7.594792119882   -0.138403195767
 H   -0.551485201674   -8.432832551371   -0.106846681447
 C   -0.800423178649   -6.229194886521   -0.099104338016
 N   -1.632737281423   -5.181685746007   -0.136869895913
 N    0.523642198627   -5.965849631254   -0.019583090356
 H    0.841581701962   -5.006275461196    0.009037230684
 H    1.207364880675   -6.708515738560    0.012822884568
