27

 N    2.895865251907    6.090220666370    0.218259930575
 C    2.055265251907    7.162140666370    0.180839930575
 H    2.512595251907    8.151110666370    0.216359930575
 C    2.447805251907    4.769740666370    0.180149930575
 O    3.285755251907    3.848460666370    0.218859930575
 N    1.091225251907    4.547430666370    0.100799930575
 C    0.258905251907    5.594940666370    0.063039930575
 N   -1.065154748093    5.331590666370   -0.016480069425
 H   -1.383094748093    4.372020666370   -0.045100069425
 H   -1.748884748093    6.074250666370   -0.048890069425
 C    0.703905251907    6.960540666370    0.102339930575
 H    0.009965251907    7.798570666370    0.070779930575
 H    3.903215251907    6.209560666370    0.276579930575
 K    1.649505251907    1.931990666370    0.109869930575
 O   -3.864536387932   -4.526371675266   -0.257418318975
 C   -3.026598707724   -5.447649827992   -0.218708993263
 N   -3.474659867441   -6.768122046125   -0.256813086138
 H   -4.482009985067   -6.887464482208   -0.315134337563
 C   -2.634059860341   -7.840047558604   -0.219391479289
 H   -3.091399196822   -8.829022418450   -0.254914574588
 C   -1.282697462148   -7.638452834016   -0.140886188578
 H   -0.588761988423   -8.476493265504   -0.109329674259
 C   -0.837699965397   -6.272855600654   -0.101587330827
 N   -1.670014068172   -5.225346460141   -0.139352888725
 N    0.486365411878   -6.009510345387   -0.022066083168
 H    0.804304915213   -5.049936175329    0.006554237872
 H    1.170088093926   -6.752176452693    0.010339891757
