27

 N    2.978648126007    6.187180724263    0.223774066830
 C    2.138048126007    7.259100724263    0.186354066830
 H    2.595378126007    8.248070724263    0.221874066830
 C    2.530588126007    4.866700724263    0.185664066830
 O    3.368538126007    3.945420724263    0.224374066830
 N    1.174008126007    4.644390724263    0.106314066830
 C    0.341688126007    5.691900724263    0.068554066830
 N   -0.982371873993    5.428550724263   -0.010965933170
 H   -1.300311873993    4.468980724263   -0.039585933170
 H   -1.666101873993    6.171210724263   -0.043375933170
 C    0.786688126007    7.057500724263    0.107854066830
 H    0.092748126007    7.895530724263    0.076294066830
 H    3.985998126007    6.306520724263    0.282094066830
 K    1.732288126007    2.028950724263    0.115384066830
 O   -3.976366748179   -4.657353817666   -0.264867297410
 C   -3.138429067971   -5.578631970392   -0.226157971697
 N   -3.586490227687   -6.899104188524   -0.264262064573
 H   -4.593840345314   -7.018446624608   -0.322583315997
 C   -2.745890220587   -7.971029701004   -0.226840457723
 H   -3.203229557068   -8.960004560850   -0.262363553022
 C   -1.394527822395   -7.769434976416   -0.148335167013
 H   -0.700592348669   -8.607475407904   -0.116778652693
 C   -0.949530325644   -6.403837743054   -0.109036309262
 N   -1.781844428419   -5.356328602541   -0.146801867159
 N    0.374535051631   -6.140492487787   -0.029515061602
 H    0.692474554966   -5.180918317729   -0.000894740562
 H    1.058257733680   -6.883158595093    0.002890913322
