27

 N    3.006242417374    6.219500743561    0.225612112249
 C    2.165642417374    7.291420743561    0.188192112249
 H    2.622972417374    8.280390743561    0.223712112249
 C    2.558182417374    4.899020743561    0.187502112249
 O    3.396132417374    3.977740743561    0.226212112249
 N    1.201602417374    4.676710743561    0.108152112249
 C    0.369282417374    5.724220743561    0.070392112249
 N   -0.954777582626    5.460870743561   -0.009127887751
 H   -1.272717582626    4.501300743561   -0.037747887751
 H   -1.638507582626    6.203530743561   -0.041537887751
 C    0.814282417374    7.089820743561    0.109692112249
 H    0.120342417374    7.927850743561    0.078132112249
 H    4.013592417374    6.338840743561    0.283932112249
 K    1.759882417374    2.061270743561    0.117222112249
 O   -4.013643534928   -4.701014531799   -0.267350290221
 C   -3.175705854720   -5.622292684525   -0.228640964509
 N   -3.623767014436   -6.942764902658   -0.266745057384
 H   -4.631117132063   -7.062107338742   -0.325066308809
 C   -2.783167007336   -8.014690415137   -0.229323450535
 H   -3.240506343817   -9.003665274983   -0.264846545834
 C   -1.431804609144   -7.813095690549   -0.150818159824
 H   -0.737869135418   -8.651136122037   -0.119261645505
 C   -0.986807112393   -6.447498457187   -0.111519302073
 N   -1.819121215168   -5.399989316674   -0.149284859971
 N    0.337258264882   -6.184153201920   -0.031998054413
 H    0.655197768217   -5.224579031862   -0.003377733374
 H    1.020980946931   -6.926819309226    0.000407920511
