27

 N    3.061431000108    6.284140782157    0.229288203086
 C    2.220831000108    7.356060782157    0.191868203086
 H    2.678161000108    8.345030782157    0.227388203086
 C    2.613371000108    4.963660782157    0.191178203086
 O    3.451321000108    4.042380782157    0.229888203086
 N    1.256791000108    4.741350782157    0.111828203086
 C    0.424471000108    5.788860782157    0.074068203086
 N   -0.899588999892    5.525510782157   -0.005451796914
 H   -1.217528999892    4.565940782157   -0.034071796914
 H   -1.583318999892    6.268170782157   -0.037861796914
 C    0.869471000108    7.154460782157    0.113368203086
 H    0.175531000108    7.992490782157    0.081808203086
 H    4.068781000108    6.403480782157    0.287608203086
 K    1.815071000108    2.125910782157    0.120898203086
 O   -4.088197108426   -4.788335960066   -0.272316275844
 C   -3.250259428218   -5.709614112792   -0.233606950132
 N   -3.698320587934   -7.030086330924   -0.271711043007
 H   -4.705670705560   -7.149428767008   -0.330032294431
 C   -2.857720580834   -8.102011843404   -0.234289436158
 H   -3.315059917315   -9.090986703250   -0.269812531457
 C   -1.506358182641   -7.900417118815   -0.155784145447
 H   -0.812422708916   -8.738457550304   -0.124227631128
 C   -1.061360685891   -6.534819885454   -0.116485287696
 N   -1.893674788665   -5.487310744940   -0.154250845594
 N    0.262704691385   -6.271474630187   -0.036964040036
 H    0.580644194720   -5.311900460129   -0.008343718996
 H    0.946427373433   -7.014140737493   -0.004558065112
