27

 N    3.089025291475    6.316460801454    0.231126248504
 C    2.248425291475    7.388380801454    0.193706248504
 H    2.705755291475    8.377350801454    0.229226248504
 C    2.640965291475    4.995980801454    0.193016248504
 O    3.478915291475    4.074700801454    0.231726248504
 N    1.284385291475    4.773670801454    0.113666248504
 C    0.452065291475    5.821180801454    0.075906248504
 N   -0.871994708525    5.557830801454   -0.003613751496
 H   -1.189934708525    4.598260801454   -0.032233751496
 H   -1.555724708525    6.300490801454   -0.036023751496
 C    0.897065291475    7.186780801454    0.115206248504
 H    0.203125291475    8.024810801454    0.083646248504
 H    4.096375291475    6.435800801454    0.289446248504
 K    1.842665291475    2.158230801454    0.122736248504
 O   -4.125473895174   -4.831996674199   -0.274799268656
 C   -3.287536214966   -5.753274826925   -0.236089942943
 N   -3.735597374683   -7.073747045058   -0.274194035818
 H   -4.742947492309   -7.193089481141   -0.332515287243
 C   -2.894997367583   -8.145672557537   -0.236772428969
 H   -3.352336704064   -9.134647417383   -0.272295524268
 C   -1.543634969390   -7.944077832949   -0.158267138258
 H   -0.849699495665   -8.782118264437   -0.126710623939
 C   -1.098637472640   -6.578480599587   -0.118968280508
 N   -1.930951575414   -5.530971459074   -0.156733838405
 N    0.225427904636   -6.315135344320   -0.039447032848
 H    0.543367407971   -5.355561174262   -0.010826711808
 H    0.909150586684   -7.057801451626   -0.007041057923
