27

 N    3.144213874209    6.381100840050    0.234802339341
 C    2.303613874209    7.453020840050    0.197382339341
 H    2.760943874209    8.441990840050    0.232902339341
 C    2.696153874209    5.060620840050    0.196692339341
 O    3.534103874209    4.139340840050    0.235402339341
 N    1.339573874209    4.838310840050    0.117342339341
 C    0.507253874209    5.885820840050    0.079582339341
 N   -0.816806125791    5.622470840050    0.000062339341
 H   -1.134746125791    4.662900840050   -0.028557660659
 H   -1.500536125791    6.365130840050   -0.032347660659
 C    0.952253874209    7.251420840050    0.118882339341
 H    0.258313874209    8.089450840050    0.087322339341
 H    4.151563874209    6.500440840050    0.293122339341
 K    1.897853874209    2.222870840050    0.126412339341
 O   -4.200027468672   -4.919318102466   -0.279765254279
 C   -3.362089788464   -5.840596255192   -0.241055928566
 N   -3.810150948181   -7.161068473324   -0.279160021441
 H   -4.817501065807   -7.280410909408   -0.337481272866
 C   -2.969550941081   -8.232993985804   -0.241738414592
 H   -3.426890277561   -9.221968845650   -0.277261509891
 C   -1.618188542888   -8.031399261215   -0.163233123881
 H   -0.924253069162   -8.869439692704   -0.131676609562
 C   -1.173191046137   -6.665802027854   -0.123934266131
 N   -2.005505148912   -5.618292887340   -0.161699824028
 N    0.150874331138   -6.402456772587   -0.044413018471
 H    0.468813834473   -5.442882602529   -0.015792697431
 H    0.834597013187   -7.145122879893   -0.012007043546
