27

 N    3.226996748309    6.478060897943    0.240316475597
 C    2.386396748309    7.549980897943    0.202896475597
 H    2.843726748309    8.538950897943    0.238416475597
 C    2.778936748309    5.157580897943    0.202206475597
 O    3.616886748309    4.236300897943    0.240916475597
 N    1.422356748309    4.935270897943    0.122856475597
 C    0.590036748309    5.982780897943    0.085096475597
 N   -0.734023251691    5.719430897943    0.005576475597
 H   -1.051963251691    4.759860897943   -0.023043524403
 H   -1.417753251691    6.462090897943   -0.026833524403
 C    1.035036748309    7.348380897943    0.124396475597
 H    0.341096748309    8.186410897943    0.092836475597
 H    4.234346748309    6.597400897943    0.298636475597
 K    1.980636748309    2.319830897943    0.131926475597
 O   -4.311857828919   -5.050300244865   -0.287214232713
 C   -3.473920148711   -5.971578397592   -0.248504907001
 N   -3.921981308427   -7.292050615724   -0.286608999876
 H   -4.929331426054   -7.411393051808   -0.344930251300
 C   -3.081381301327   -8.363976128203   -0.249187393027
 H   -3.538720637808   -9.352950988050   -0.284710488325
 C   -1.730018903135   -8.162381403615   -0.170682102316
 H   -1.036083429409   -9.000421835104   -0.139125587997
 C   -1.285021406384   -6.796784170254   -0.131383244565
 N   -2.117335509158   -5.749275029740   -0.169148802462
 N    0.039043970891   -6.533438914986   -0.051861996905
 H    0.356983474227   -5.573864744928   -0.023241675865
 H    0.722766652940   -7.276105022293   -0.019456021981
