27

 N    3.254591039676    6.510380917241    0.242154521015
 C    2.413991039676    7.582300917241    0.204734521015
 H    2.871321039676    8.571270917241    0.240254521015
 C    2.806531039676    5.189900917241    0.204044521015
 O    3.644481039676    4.268620917241    0.242754521015
 N    1.449951039676    4.967590917241    0.124694521015
 C    0.617631039676    6.015100917241    0.086934521015
 N   -0.706428960324    5.751750917241    0.007414521015
 H   -1.024368960324    4.792180917241   -0.021205478985
 H   -1.390158960324    6.494410917241   -0.024995478985
 C    1.062631039676    7.380700917241    0.126234521015
 H    0.368691039676    8.218730917241    0.094674521015
 H    4.261941039676    6.629720917241    0.300474521015
 K    2.008231039676    2.352150917241    0.133764521015
 O   -4.349134615668   -5.093960958999   -0.289697225524
 C   -3.511196935460   -6.015239111725   -0.250987899812
 N   -3.959258095176   -7.335711329857   -0.289091992687
 H   -4.966608212802   -7.455053765941   -0.347413244112
 C   -3.118658088076   -8.407636842337   -0.251670385838
 H   -3.575997424557   -9.396611702183   -0.287193481137
 C   -1.767295689884   -8.206042117749   -0.173165095127
 H   -1.073360216158   -9.044082549237   -0.141608580808
 C   -1.322298193133   -6.840444884387   -0.133866237376
 N   -2.154612295907   -5.792935743873   -0.171631795274
 N    0.001767184143   -6.577099629120   -0.054344989717
 H    0.319706687478   -5.617525459062   -0.025724668677
 H    0.685489866191   -7.319765736426   -0.021939014792
