28

 C   -0.992080196874   -4.408148545693    0.000000000000
 H   -0.833220196874   -5.487718545693    0.000000000000
 C    0.105589803126   -3.532988545693    0.000000000000
 H    1.122409803126   -3.933948545693    0.000000000000
 C   -2.297140196874   -3.882538545693    0.000000000000
 H   -3.159090196874   -4.553048545693    0.000000000000
 C   -0.086180196874   -2.139068545693    0.000000000000
 H    0.788989803126   -1.490888545693    0.000000000000
 C   -2.510050196874   -2.492828545693    0.000000000000
 H   -3.527980196874   -2.090338545693    0.000000000000
 C   -1.400710196874   -1.641508545693    0.000000000000
 O   -1.557010196874   -0.232778545693    0.000000000000
 H   -2.507410196874   -0.024248545693    0.000000000000
 K    0.256529803126    0.038351454307    1.984960000000
 K    0.256529803126    0.038351454307   -1.984960000000
 O    1.344438952816    0.200997333502    0.000000000000
 H    2.294841938902   -0.007527543049    0.000000000000
 C    1.188137225359    1.609732878022    0.000000000000
 C   -0.126391303291    2.107284321559    0.000000000000
 H   -1.001559470043    1.459108139102    0.000000000000
 C   -0.318164556392    3.501204233855    0.000000000000
 H   -1.334986482722    3.902160454077    0.000000000000
 C    0.779506787034    4.376368472339    0.000000000000
 H    0.620651073763    5.455943528720    0.000000000000
 C    2.084569069341    3.850759811640    0.000000000000
 H    2.946523756623    4.521271167750    0.000000000000
 C    2.297476706332    2.461054308841    0.000000000000
 H    3.315412575677    2.058562681224    0.000000000000
