28

 C   -1.062008234942   -4.418603009869    0.000000000000
 H   -0.903148234942   -5.498173009869    0.000000000000
 C    0.035661765058   -3.543443009869    0.000000000000
 H    1.052481765058   -3.944403009869    0.000000000000
 C   -2.367068234942   -3.892993009869    0.000000000000
 H   -3.229018234942   -4.563503009869    0.000000000000
 C   -0.156108234942   -2.149523009869    0.000000000000
 H    0.719061765058   -1.501343009869    0.000000000000
 C   -2.579978234942   -2.503283009869    0.000000000000
 H   -3.597908234942   -2.100793009869    0.000000000000
 C   -1.470638234942   -1.651963009869    0.000000000000
 O   -1.626938234942   -0.243233009869    0.000000000000
 H   -2.577338234942   -0.034703009869    0.000000000000
 K    0.186601765058    0.027896990131    1.984960000000
 K    0.186601765058    0.027896990131   -1.984960000000
 O    1.472312578328    0.220114847362    0.000000000000
 H    2.422715564414    0.011589970811    0.000000000000
 C    1.316010850871    1.628850391881    0.000000000000
 C    0.001482322221    2.126401835419    0.000000000000
 H   -0.873685844531    1.478225652962    0.000000000000
 C   -0.190290930880    3.520321747715    0.000000000000
 H   -1.207112857210    3.921277967937    0.000000000000
 C    0.907380412546    4.395485986198    0.000000000000
 H    0.748524699275    5.475061042580    0.000000000000
 C    2.212442694853    3.869877325500    0.000000000000
 H    3.074397382135    4.540388681609    0.000000000000
 C    2.425350331844    2.480171822701    0.000000000000
 H    3.443286201189    2.077680195084    0.000000000000
