28

 C   -1.166900292045   -4.434284706133    0.000000000000
 H   -1.008040292045   -5.513854706133    0.000000000000
 C   -0.069230292045   -3.559124706133    0.000000000000
 H    0.947589707955   -3.960084706133    0.000000000000
 C   -2.471960292045   -3.908674706133    0.000000000000
 H   -3.333910292045   -4.579184706133    0.000000000000
 C   -0.261000292045   -2.165204706133    0.000000000000
 H    0.614169707955   -1.517024706133    0.000000000000
 C   -2.684870292045   -2.518964706133    0.000000000000
 H   -3.702800292045   -2.116474706133    0.000000000000
 C   -1.575530292045   -1.667644706133    0.000000000000
 O   -1.731830292045   -0.258914706133    0.000000000000
 H   -2.682230292045   -0.050384706133    0.000000000000
 K    0.081709707955    0.012215293867    1.984960000000
 K    0.081709707955    0.012215293867   -1.984960000000
 O    1.664123016596    0.248791118151    0.000000000000
 H    2.614526002682    0.040266241600    0.000000000000
 C    1.507821289139    1.657526662671    0.000000000000
 C    0.193292760489    2.155078106208    0.000000000000
 H   -0.681875406263    1.506901923751    0.000000000000
 C    0.001519507388    3.548998018504    0.000000000000
 H   -1.015302418942    3.949954238726    0.000000000000
 C    1.099190850814    4.424162256988    0.000000000000
 H    0.940335137543    5.503737313369    0.000000000000
 C    2.404253133121    3.898553596290    0.000000000000
 H    3.266207820403    4.569064952399    0.000000000000
 C    2.617160770112    2.508848093490    0.000000000000
 H    3.635096639457    2.106356465873    0.000000000000
