28

 C   -1.376684406249   -4.465648098660    0.000000000000
 H   -1.217824406249   -5.545218098660    0.000000000000
 C   -0.279014406249   -3.590488098660    0.000000000000
 H    0.737805593751   -3.991448098660    0.000000000000
 C   -2.681744406249   -3.940038098660    0.000000000000
 H   -3.543694406249   -4.610548098660    0.000000000000
 C   -0.470784406249   -2.196568098660    0.000000000000
 H    0.404385593751   -1.548388098660    0.000000000000
 C   -2.894654406249   -2.550328098660    0.000000000000
 H   -3.912584406249   -2.147838098660    0.000000000000
 C   -1.785314406249   -1.699008098660    0.000000000000
 O   -1.941614406249   -0.290278098660    0.000000000000
 H   -2.892014406249   -0.081748098660    0.000000000000
 K   -0.128074406249   -0.019148098660    1.984960000000
 K   -0.128074406249   -0.019148098660   -1.984960000000
 O    2.047743893133    0.306143659730    0.000000000000
 H    2.998146879218    0.097618783179    0.000000000000
 C    1.891442165675    1.714879204250    0.000000000000
 C    0.576913637025    2.212430647787    0.000000000000
 H   -0.298254529727    1.564254465330    0.000000000000
 C    0.385140383924    3.606350560083    0.000000000000
 H   -0.631681542406    4.007306780305    0.000000000000
 C    1.482811727350    4.481514798567    0.000000000000
 H    1.323956014079    5.561089854948    0.000000000000
 C    2.787874009657    3.955906137869    0.000000000000
 H    3.649828696939    4.626417493978    0.000000000000
 C    3.000781646648    2.566200635069    0.000000000000
 H    4.018717515993    2.163709007452    0.000000000000
