28

 C   -1.446612444317   -4.476102562836    0.000000000000
 H   -1.287752444317   -5.555672562836    0.000000000000
 C   -0.348942444317   -3.600942562836    0.000000000000
 H    0.667877555683   -4.001902562836    0.000000000000
 C   -2.751672444317   -3.950492562836    0.000000000000
 H   -3.613622444317   -4.621002562836    0.000000000000
 C   -0.540712444317   -2.207022562836    0.000000000000
 H    0.334457555683   -1.558842562836    0.000000000000
 C   -2.964582444317   -2.560782562836    0.000000000000
 H   -3.982512444317   -2.158292562836    0.000000000000
 C   -1.855242444317   -1.709462562836    0.000000000000
 O   -2.011542444317   -0.300732562836    0.000000000000
 H   -2.961942444317   -0.092202562836    0.000000000000
 K   -0.198002444317   -0.029602562836    1.984960000000
 K   -0.198002444317   -0.029602562836   -1.984960000000
 O    2.175617518645    0.325261173590    0.000000000000
 H    3.126020504730    0.116736297039    0.000000000000
 C    2.019315791187    1.733996718110    0.000000000000
 C    0.704787262537    2.231548161647    0.000000000000
 H   -0.170380904214    1.583371979190    0.000000000000
 C    0.513014009436    3.625468073943    0.000000000000
 H   -0.503807916894    4.026424294165    0.000000000000
 C    1.610685352862    4.500632312426    0.000000000000
 H    1.451829639591    5.580207368808    0.000000000000
 C    2.915747635169    3.975023651728    0.000000000000
 H    3.777702322451    4.645535007838    0.000000000000
 C    3.128655272160    2.585318148929    0.000000000000
 H    4.146591141505    2.182826521312    0.000000000000
