28

 C   -1.516540482385   -4.486557027012    0.000000000000
 H   -1.357680482385   -5.566127027012    0.000000000000
 C   -0.418870482385   -3.611397027012    0.000000000000
 H    0.597949517615   -4.012357027012    0.000000000000
 C   -2.821600482385   -3.960947027012    0.000000000000
 H   -3.683550482385   -4.631457027012    0.000000000000
 C   -0.610640482385   -2.217477027012    0.000000000000
 H    0.264529517615   -1.569297027012    0.000000000000
 C   -3.034510482385   -2.571237027012    0.000000000000
 H   -4.052440482385   -2.168747027012    0.000000000000
 C   -1.925170482385   -1.719917027012    0.000000000000
 O   -2.081470482385   -0.311187027012    0.000000000000
 H   -3.031870482385   -0.102657027012    0.000000000000
 K   -0.267930482385   -0.040057027012    1.984960000000
 K   -0.267930482385   -0.040057027012   -1.984960000000
 O    2.303491144157    0.344378687449    0.000000000000
 H    3.253894130242    0.135853810899    0.000000000000
 C    2.147189416699    1.753114231969    0.000000000000
 C    0.832660888049    2.250665675507    0.000000000000
 H   -0.042507278702    1.602489493050    0.000000000000
 C    0.640887634948    3.644585587803    0.000000000000
 H   -0.375934291382    4.045541808024    0.000000000000
 C    1.738558978374    4.519749826286    0.000000000000
 H    1.579703265103    5.599324882668    0.000000000000
 C    3.043621260681    3.994141165588    0.000000000000
 H    3.905575947964    4.664652521697    0.000000000000
 C    3.256528897672    2.604435662789    0.000000000000
 H    4.274464767017    2.201944035172    0.000000000000
