28

 C   -1.586468520453   -4.497011491188    0.000000000000
 H   -1.427608520453   -5.576581491188    0.000000000000
 C   -0.488798520453   -3.621851491188    0.000000000000
 H    0.528021479547   -4.022811491188    0.000000000000
 C   -2.891528520453   -3.971401491188    0.000000000000
 H   -3.753478520453   -4.641911491188    0.000000000000
 C   -0.680568520453   -2.227931491188    0.000000000000
 H    0.194601479547   -1.579751491188    0.000000000000
 C   -3.104438520453   -2.581691491188    0.000000000000
 H   -4.122368520453   -2.179201491188    0.000000000000
 C   -1.995098520453   -1.730371491188    0.000000000000
 O   -2.151398520453   -0.321641491188    0.000000000000
 H   -3.101798520453   -0.113111491188    0.000000000000
 K   -0.337858520453   -0.050511491188    1.984960000000
 K   -0.337858520453   -0.050511491188   -1.984960000000
 O    2.431364769669    0.363496201309    0.000000000000
 H    3.381767755754    0.154971324758    0.000000000000
 C    2.275063042211    1.772231745829    0.000000000000
 C    0.960534513561    2.269783189366    0.000000000000
 H    0.085366346810    1.621607006909    0.000000000000
 C    0.768761260460    3.663703101662    0.000000000000
 H   -0.248060665870    4.064659321884    0.000000000000
 C    1.866432603886    4.538867340146    0.000000000000
 H    1.707576890615    5.618442396527    0.000000000000
 C    3.171494886193    4.013258679448    0.000000000000
 H    4.033449573476    4.683770035557    0.000000000000
 C    3.384402523184    2.623553176648    0.000000000000
 H    4.402338392529    2.221061549031    0.000000000000
