28

 C   -1.621432539487   -4.502238723276    0.000000000000
 H   -1.462572539487   -5.581808723276    0.000000000000
 C   -0.523762539487   -3.627078723276    0.000000000000
 H    0.493057460513   -4.028038723276    0.000000000000
 C   -2.926492539487   -3.976628723276    0.000000000000
 H   -3.788442539487   -4.647138723276    0.000000000000
 C   -0.715532539487   -2.233158723276    0.000000000000
 H    0.159637460513   -1.584978723276    0.000000000000
 C   -3.139402539487   -2.586918723276    0.000000000000
 H   -4.157332539487   -2.184428723276    0.000000000000
 C   -2.030062539487   -1.735598723276    0.000000000000
 O   -2.186362539487   -0.326868723276    0.000000000000
 H   -3.136762539487   -0.118338723276    0.000000000000
 K   -0.372822539487   -0.055738723276    1.984960000000
 K   -0.372822539487   -0.055738723276   -1.984960000000
 O    2.495301582425    0.373054958239    0.000000000000
 H    3.445704568510    0.164530081688    0.000000000000
 C    2.338999854967    1.781790502759    0.000000000000
 C    1.024471326317    2.279341946296    0.000000000000
 H    0.149303159566    1.631165763839    0.000000000000
 C    0.832698073216    3.673261858592    0.000000000000
 H   -0.184123853114    4.074218078814    0.000000000000
 C    1.930369416642    4.548426097076    0.000000000000
 H    1.771513703371    5.628001153457    0.000000000000
 C    3.235431698949    4.022817436378    0.000000000000
 H    4.097386386232    4.693328792487    0.000000000000
 C    3.448339335940    2.633111933578    0.000000000000
 H    4.466275205285    2.230620305961    0.000000000000
