28

 C   -1.656396558521   -4.507465955364    0.000000000000
 H   -1.497536558521   -5.587035955364    0.000000000000
 C   -0.558726558521   -3.632305955364    0.000000000000
 H    0.458093441479   -4.033265955364    0.000000000000
 C   -2.961456558521   -3.981855955364    0.000000000000
 H   -3.823406558521   -4.652365955364    0.000000000000
 C   -0.750496558521   -2.238385955364    0.000000000000
 H    0.124673441479   -1.590205955364    0.000000000000
 C   -3.174366558521   -2.592145955364    0.000000000000
 H   -4.192296558521   -2.189655955364    0.000000000000
 C   -2.065026558521   -1.740825955364    0.000000000000
 O   -2.221326558521   -0.332095955364    0.000000000000
 H   -3.171726558521   -0.123565955364    0.000000000000
 K   -0.407786558521   -0.060965955364    1.984960000000
 K   -0.407786558521   -0.060965955364   -1.984960000000
 O    2.559238395181    0.382613715169    0.000000000000
 H    3.509641381266    0.174088838618    0.000000000000
 C    2.402936667723    1.791349259689    0.000000000000
 C    1.088408139073    2.288900703226    0.000000000000
 H    0.213239972322    1.640724520769    0.000000000000
 C    0.896634885972    3.682820615522    0.000000000000
 H   -0.120187040358    4.083776835744    0.000000000000
 C    1.994306229398    4.557984854005    0.000000000000
 H    1.835450516127    5.637559910387    0.000000000000
 C    3.299368511705    4.032376193307    0.000000000000
 H    4.161323198988    4.702887549417    0.000000000000
 C    3.512276148696    2.642670690508    0.000000000000
 H    4.530212018041    2.240179062891    0.000000000000
