28

 C   -1.761288615623   -4.523147651627    0.000000000000
 H   -1.602428615623   -5.602717651627    0.000000000000
 C   -0.663618615623   -3.647987651627    0.000000000000
 H    0.353201384377   -4.048947651627    0.000000000000
 C   -3.066348615623   -3.997537651627    0.000000000000
 H   -3.928298615623   -4.668047651627    0.000000000000
 C   -0.855388615623   -2.254067651627    0.000000000000
 H    0.019781384377   -1.605887651627    0.000000000000
 C   -3.279258615623   -2.607827651627    0.000000000000
 H   -4.297188615623   -2.205337651627    0.000000000000
 C   -2.169918615623   -1.756507651627    0.000000000000
 O   -2.326218615623   -0.347777651627    0.000000000000
 H   -3.276618615623   -0.139247651627    0.000000000000
 K   -0.512678615623   -0.076647651627    1.984960000000
 K   -0.512678615623   -0.076647651627   -1.984960000000
 O    2.751048833449    0.411289985958    0.000000000000
 H    3.701451819534    0.202765109408    0.000000000000
 C    2.594747105991    1.820025530478    0.000000000000
 C    1.280218577341    2.317576974015    0.000000000000
 H    0.405050410590    1.669400791558    0.000000000000
 C    1.088445324240    3.711496886311    0.000000000000
 H    0.071623397910    4.112453106533    0.000000000000
 C    2.186116667666    4.586661124795    0.000000000000
 H    2.027260954395    5.666236181176    0.000000000000
 C    3.491178949973    4.061052464097    0.000000000000
 H    4.353133637256    4.731563820206    0.000000000000
 C    3.704086586965    2.671346961298    0.000000000000
 H    4.722022456309    2.268855333681    0.000000000000
