28

 C   -1.831216653691   -4.533602115803    0.000000000000
 H   -1.672356653691   -5.613172115803    0.000000000000
 C   -0.733546653691   -3.658442115803    0.000000000000
 H    0.283273346309   -4.059402115803    0.000000000000
 C   -3.136276653691   -4.007992115803    0.000000000000
 H   -3.998226653691   -4.678502115803    0.000000000000
 C   -0.925316653691   -2.264522115803    0.000000000000
 H   -0.050146653691   -1.616342115803    0.000000000000
 C   -3.349186653691   -2.618282115803    0.000000000000
 H   -4.367116653691   -2.215792115803    0.000000000000
 C   -2.239846653691   -1.766962115803    0.000000000000
 O   -2.396146653691   -0.358232115803    0.000000000000
 H   -3.346546653691   -0.149702115803    0.000000000000
 K   -0.582606653691   -0.087102115803    1.984960000000
 K   -0.582606653691   -0.087102115803   -1.984960000000
 O    2.878922458961    0.430407499818    0.000000000000
 H    3.829325445046    0.221882623267    0.000000000000
 C    2.722620731503    1.839143044338    0.000000000000
 C    1.408092202853    2.336694487875    0.000000000000
 H    0.532924036102    1.688518305418    0.000000000000
 C    1.216318949752    3.730614400171    0.000000000000
 H    0.199497023422    4.131570620393    0.000000000000
 C    2.313990293179    4.605778638655    0.000000000000
 H    2.155134579907    5.685353695036    0.000000000000
 C    3.619052575485    4.080169977957    0.000000000000
 H    4.481007262768    4.750681334066    0.000000000000
 C    3.831960212477    2.690464475157    0.000000000000
 H    4.849896081821    2.287972847540    0.000000000000
