28

 C   -1.936108710794   -4.549283812067    0.000000000000
 H   -1.777248710794   -5.628853812067    0.000000000000
 C   -0.838438710794   -3.674123812067    0.000000000000
 H    0.178381289206   -4.075083812067    0.000000000000
 C   -3.241168710794   -4.023673812067    0.000000000000
 H   -4.103118710794   -4.694183812067    0.000000000000
 C   -1.030208710794   -2.280203812067    0.000000000000
 H   -0.155038710794   -1.632023812067    0.000000000000
 C   -3.454078710794   -2.633963812067    0.000000000000
 H   -4.472008710794   -2.231473812067    0.000000000000
 C   -2.344738710794   -1.782643812067    0.000000000000
 O   -2.501038710794   -0.373913812067    0.000000000000
 H   -3.451438710794   -0.165383812067    0.000000000000
 K   -0.687498710794   -0.102783812067    1.984960000000
 K   -0.687498710794   -0.102783812067   -1.984960000000
 O    3.070732897229    0.459083770608    0.000000000000
 H    4.021135883314    0.250558894057    0.000000000000
 C    2.914431169771    1.867819315127    0.000000000000
 C    1.599902641121    2.365370758665    0.000000000000
 H    0.724734474370    1.717194576208    0.000000000000
 C    1.408129388020    3.759290670961    0.000000000000
 H    0.391307461690    4.160246891183    0.000000000000
 C    2.505800731447    4.634454909444    0.000000000000
 H    2.346945018175    5.714029965826    0.000000000000
 C    3.810863013753    4.108846248746    0.000000000000
 H    4.672817701036    4.779357604855    0.000000000000
 C    4.023770650745    2.719140745947    0.000000000000
 H    5.041706520089    2.316649118330    0.000000000000
