28

 C   -2.006036748862   -4.559738276243    0.000000000000
 H   -1.847176748862   -5.639308276243    0.000000000000
 C   -0.908366748862   -3.684578276243    0.000000000000
 H    0.108453251138   -4.085538276243    0.000000000000
 C   -3.311096748862   -4.034128276243    0.000000000000
 H   -4.173046748862   -4.704638276243    0.000000000000
 C   -1.100136748862   -2.290658276243    0.000000000000
 H   -0.224966748862   -1.642478276243    0.000000000000
 C   -3.524006748862   -2.644418276243    0.000000000000
 H   -4.541936748862   -2.241928276243    0.000000000000
 C   -2.414666748862   -1.793098276243    0.000000000000
 O   -2.570966748862   -0.384368276243    0.000000000000
 H   -3.521366748862   -0.175838276243    0.000000000000
 K   -0.757426748862   -0.113238276243    1.984960000000
 K   -0.757426748862   -0.113238276243   -1.984960000000
 O    3.198606522741    0.478201284467    0.000000000000
 H    4.149009508826    0.269676407916    0.000000000000
 C    3.042304795283    1.886936828987    0.000000000000
 C    1.727776266633    2.384488272524    0.000000000000
 H    0.852608099882    1.736312090067    0.000000000000
 C    1.536003013532    3.778408184820    0.000000000000
 H    0.519181087202    4.179364405042    0.000000000000
 C    2.633674356959    4.653572423304    0.000000000000
 H    2.474818643687    5.733147479685    0.000000000000
 C    3.938736639265    4.127963762606    0.000000000000
 H    4.800691326548    4.798475118715    0.000000000000
 C    4.151644276257    2.738258259806    0.000000000000
 H    5.169580145601    2.335766632190    0.000000000000
