28

 C   -2.145892824998   -4.580647204594    0.000000000000
 H   -1.987032824998   -5.660217204594    0.000000000000
 C   -1.048222824998   -3.705487204594    0.000000000000
 H   -0.031402824998   -4.106447204594    0.000000000000
 C   -3.450952824998   -4.055037204594    0.000000000000
 H   -4.312902824998   -4.725547204594    0.000000000000
 C   -1.239992824998   -2.311567204594    0.000000000000
 H   -0.364822824998   -1.663387204594    0.000000000000
 C   -3.663862824998   -2.665327204594    0.000000000000
 H   -4.681792824998   -2.262837204594    0.000000000000
 C   -2.554522824998   -1.814007204594    0.000000000000
 O   -2.710822824998   -0.405277204594    0.000000000000
 H   -3.661222824998   -0.196747204594    0.000000000000
 K   -0.897282824998   -0.134147204594    1.984960000000
 K   -0.897282824998   -0.134147204594   -1.984960000000
 O    3.454353773765    0.516436312187    0.000000000000
 H    4.404756759850    0.307911435636    0.000000000000
 C    3.298052046307    1.925171856706    0.000000000000
 C    1.983523517658    2.422723300244    0.000000000000
 H    1.108355350906    1.774547117787    0.000000000000
 C    1.791750264556    3.816643212540    0.000000000000
 H    0.774928338226    4.217599432762    0.000000000000
 C    2.889421607983    4.691807451023    0.000000000000
 H    2.730565894711    5.771382507405    0.000000000000
 C    4.194483890289    4.166198790325    0.000000000000
 H    5.056438577572    4.836710146434    0.000000000000
 C    4.407391527281    2.776493287526    0.000000000000
 H    5.425327396625    2.374001659909    0.000000000000
