28

 C   -2.390640958236   -4.617237829210    0.000000000000
 H   -2.231780958236   -5.696807829210    0.000000000000
 C   -1.292970958236   -3.742077829210    0.000000000000
 H   -0.276150958236   -4.143037829210    0.000000000000
 C   -3.695700958236   -4.091627829210    0.000000000000
 H   -4.557650958236   -4.762137829210    0.000000000000
 C   -1.484740958236   -2.348157829210    0.000000000000
 H   -0.609570958236   -1.699977829210    0.000000000000
 C   -3.908610958236   -2.701917829210    0.000000000000
 H   -4.926540958236   -2.299427829210    0.000000000000
 C   -2.799270958236   -1.850597829210    0.000000000000
 O   -2.955570958236   -0.441867829210    0.000000000000
 H   -3.905970958236   -0.233337829210    0.000000000000
 K   -1.142030958236   -0.170737829210    1.984960000000
 K   -1.142030958236   -0.170737829210   -1.984960000000
 O    3.901911463057    0.583347610695    0.000000000000
 H    4.852314449142    0.374822734145    0.000000000000
 C    3.745609735599    1.992083155215    0.000000000000
 C    2.431081206950    2.489634598753    0.000000000000
 H    1.555913040198    1.841458416296    0.000000000000
 C    2.239307953848    3.883554511048    0.000000000000
 H    1.222486027519    4.284510731270    0.000000000000
 C    3.336979297275    4.758718749532    0.000000000000
 H    3.178123584003    5.838293805913    0.000000000000
 C    4.642041579581    4.233110088834    0.000000000000
 H    5.503996266864    4.903621444943    0.000000000000
 C    4.854949216573    2.843404586035    0.000000000000
 H    5.872885085917    2.440912958418    0.000000000000
