28

 C   -2.565461053407   -4.643373989649    0.000000000000
 H   -2.406601053407   -5.722943989649    0.000000000000
 C   -1.467791053407   -3.768213989649    0.000000000000
 H   -0.450971053407   -4.169173989649    0.000000000000
 C   -3.870521053407   -4.117763989649    0.000000000000
 H   -4.732471053407   -4.788273989649    0.000000000000
 C   -1.659561053407   -2.374293989649    0.000000000000
 H   -0.784391053407   -1.726113989649    0.000000000000
 C   -4.083431053407   -2.728053989649    0.000000000000
 H   -5.101361053407   -2.325563989649    0.000000000000
 C   -2.974091053407   -1.876733989649    0.000000000000
 O   -3.130391053407   -0.468003989649    0.000000000000
 H   -4.080791053407   -0.259473989649    0.000000000000
 K   -1.316851053407   -0.196873989649    1.984960000000
 K   -1.316851053407   -0.196873989649   -1.984960000000
 O    4.221595526837    0.631141395345    0.000000000000
 H    5.171998512922    0.422616518794    0.000000000000
 C    4.065293799379    2.039876939864    0.000000000000
 C    2.750765270730    2.537428383402    0.000000000000
 H    1.875597103978    1.889252200945    0.000000000000
 C    2.558992017629    3.931348295698    0.000000000000
 H    1.542170091299    4.332304515920    0.000000000000
 C    3.656663361055    4.806512534181    0.000000000000
 H    3.497807647783    5.886087590563    0.000000000000
 C    4.961725643361    4.280903873483    0.000000000000
 H    5.823680330644    4.951415229592    0.000000000000
 C    5.174633280353    2.891198370684    0.000000000000
 H    6.192569149698    2.488706743067    0.000000000000
