28

 C   -2.670353110509   -4.659055685913    0.000000000000
 H   -2.511493110509   -5.738625685913    0.000000000000
 C   -1.572683110509   -3.783895685913    0.000000000000
 H   -0.555863110509   -4.184855685913    0.000000000000
 C   -3.975413110509   -4.133445685913    0.000000000000
 H   -4.837363110509   -4.803955685913    0.000000000000
 C   -1.764453110509   -2.389975685913    0.000000000000
 H   -0.889283110509   -1.741795685913    0.000000000000
 C   -4.188323110509   -2.743735685913    0.000000000000
 H   -5.206253110509   -2.341245685913    0.000000000000
 C   -3.078983110509   -1.892415685913    0.000000000000
 O   -3.235283110509   -0.483685685913    0.000000000000
 H   -4.185683110509   -0.275155685913    0.000000000000
 K   -1.421743110509   -0.212555685913    1.984960000000
 K   -1.421743110509   -0.212555685913   -1.984960000000
 O    4.413405965105    0.659817666134    0.000000000000
 H    5.363808951190    0.451292789583    0.000000000000
 C    4.257104237648    2.068553210654    0.000000000000
 C    2.942575708998    2.566104654191    0.000000000000
 H    2.067407542246    1.917928471734    0.000000000000
 C    2.750802455897    3.960024566487    0.000000000000
 H    1.733980529567    4.360980786709    0.000000000000
 C    3.848473799323    4.835188804971    0.000000000000
 H    3.689618086051    5.914763861352    0.000000000000
 C    5.153536081630    4.309580144273    0.000000000000
 H    6.015490768912    4.980091500382    0.000000000000
 C    5.366443718621    2.919874641473    0.000000000000
 H    6.384379587966    2.517383013856    0.000000000000
