28

 C   -2.705317129543   -4.664282918001    0.000000000000
 H   -2.546457129543   -5.743852918001    0.000000000000
 C   -1.607647129543   -3.789122918001    0.000000000000
 H   -0.590827129543   -4.190082918001    0.000000000000
 C   -4.010377129543   -4.138672918001    0.000000000000
 H   -4.872327129543   -4.809182918001    0.000000000000
 C   -1.799417129543   -2.395202918001    0.000000000000
 H   -0.924247129543   -1.747022918001    0.000000000000
 C   -4.223287129543   -2.748962918001    0.000000000000
 H   -5.241217129543   -2.346472918001    0.000000000000
 C   -3.113947129543   -1.897642918001    0.000000000000
 O   -3.270247129543   -0.488912918001    0.000000000000
 H   -4.220647129543   -0.280382918001    0.000000000000
 K   -1.456707129543   -0.217782918001    1.984960000000
 K   -1.456707129543   -0.217782918001   -1.984960000000
 O    4.477342777861    0.669376423064    0.000000000000
 H    5.427745763946    0.460851546513    0.000000000000
 C    4.321041050404    2.078111967584    0.000000000000
 C    3.006512521754    2.575663411121    0.000000000000
 H    2.131344355002    1.927487228664    0.000000000000
 C    2.814739268653    3.969583323417    0.000000000000
 H    1.797917342323    4.370539543639    0.000000000000
 C    3.912410612079    4.844747561901    0.000000000000
 H    3.753554898808    5.924322618282    0.000000000000
 C    5.217472894386    4.319138901203    0.000000000000
 H    6.079427581668    4.989650257312    0.000000000000
 C    5.430380531377    2.929433398403    0.000000000000
 H    6.448316400722    2.526941770786    0.000000000000
