28

 C   -2.845173205679   -4.685191846352    0.000000000000
 H   -2.686313205679   -5.764761846352    0.000000000000
 C   -1.747503205679   -3.810031846352    0.000000000000
 H   -0.730683205679   -4.210991846352    0.000000000000
 C   -4.150233205679   -4.159581846352    0.000000000000
 H   -5.012183205679   -4.830091846352    0.000000000000
 C   -1.939273205679   -2.416111846352    0.000000000000
 H   -1.064103205679   -1.767931846352    0.000000000000
 C   -4.363143205679   -2.769871846352    0.000000000000
 H   -5.381073205679   -2.367381846352    0.000000000000
 C   -3.253803205679   -1.918551846352    0.000000000000
 O   -3.410103205679   -0.509821846352    0.000000000000
 H   -4.360503205679   -0.301291846352    0.000000000000
 K   -1.596563205679   -0.238691846352    1.984960000000
 K   -1.596563205679   -0.238691846352   -1.984960000000
 O    4.733090028885    0.707611450783    0.000000000000
 H    5.683493014971    0.499086574233    0.000000000000
 C    4.576788301428    2.116346995303    0.000000000000
 C    3.262259772778    2.613898438840    0.000000000000
 H    2.387091606026    1.965722256383    0.000000000000
 C    3.070486519677    4.007818351136    0.000000000000
 H    2.053664593347    4.408774571358    0.000000000000
 C    4.168157863103    4.882982589620    0.000000000000
 H    4.009302149832    5.962557646001    0.000000000000
 C    5.473220145410    4.357373928922    0.000000000000
 H    6.335174832692    5.027885285031    0.000000000000
 C    5.686127782401    2.967668426123    0.000000000000
 H    6.704063651746    2.565176798506    0.000000000000
