28

 C   -3.369633491190   -4.763600327671    0.000000000000
 H   -3.210773491190   -5.843170327671    0.000000000000
 C   -2.271963491190   -3.888440327671    0.000000000000
 H   -1.255143491190   -4.289400327671    0.000000000000
 C   -4.674693491190   -4.237990327671    0.000000000000
 H   -5.536643491190   -4.908500327671    0.000000000000
 C   -2.463733491190   -2.494520327671    0.000000000000
 H   -1.588563491190   -1.846340327671    0.000000000000
 C   -4.887603491190   -2.848280327671    0.000000000000
 H   -5.905533491190   -2.445790327671    0.000000000000
 C   -3.778263491190   -1.996960327671    0.000000000000
 O   -3.934563491190   -0.588230327671    0.000000000000
 H   -4.884963491190   -0.379700327671    0.000000000000
 K   -2.121023491190   -0.317100327671    1.984960000000
 K   -2.121023491190   -0.317100327671   -1.984960000000
 O    5.692142220226    0.850992804731    0.000000000000
 H    6.642545206311    0.642467928180    0.000000000000
 C    5.535840492768    2.259728349251    0.000000000000
 C    4.221311964118    2.757279792788    0.000000000000
 H    3.346143797367    2.109103610331    0.000000000000
 C    4.029538711017    4.151199705084    0.000000000000
 H    3.012716784687    4.552155925306    0.000000000000
 C    5.127210054443    5.026363943568    0.000000000000
 H    4.968354341172    6.105938999949    0.000000000000
 C    6.432272336750    4.500755282869    0.000000000000
 H    7.294227024033    5.171266638979    0.000000000000
 C    6.645179973741    3.111049780070    0.000000000000
 H    7.663115843086    2.708558152453    0.000000000000
