28

 C   -3.579417605394   -4.794963720198    0.000000000000
 H   -3.420557605394   -5.874533720198    0.000000000000
 C   -2.481747605394   -3.919803720198    0.000000000000
 H   -1.464927605394   -4.320763720198    0.000000000000
 C   -4.884477605394   -4.269353720198    0.000000000000
 H   -5.746427605394   -4.939863720198    0.000000000000
 C   -2.673517605394   -2.525883720198    0.000000000000
 H   -1.798347605394   -1.877703720198    0.000000000000
 C   -5.097387605394   -2.879643720198    0.000000000000
 H   -6.115317605394   -2.477153720198    0.000000000000
 C   -3.988047605394   -2.028323720198    0.000000000000
 O   -4.144347605394   -0.619593720198    0.000000000000
 H   -5.094747605394   -0.411063720198    0.000000000000
 K   -2.330807605394   -0.348463720198    1.984960000000
 K   -2.330807605394   -0.348463720198   -1.984960000000
 O    6.075763096762    0.908345346310    0.000000000000
 H    7.026166082847    0.699820469759    0.000000000000
 C    5.919461369304    2.317080890830    0.000000000000
 C    4.604932840654    2.814632334367    0.000000000000
 H    3.729764673903    2.166456151910    0.000000000000
 C    4.413159587553    4.208552246663    0.000000000000
 H    3.396337661223    4.609508466885    0.000000000000
 C    5.510830930979    5.083716485147    0.000000000000
 H    5.351975217708    6.163291541528    0.000000000000
 C    6.815893213286    4.558107824449    0.000000000000
 H    7.677847900569    5.228619180558    0.000000000000
 C    7.028800850277    3.168402321649    0.000000000000
 H    8.046736719622    2.765910694032    0.000000000000
