28

 C   -3.649345643462   -4.805418184374    0.000000000000
 H   -3.490485643462   -5.884988184374    0.000000000000
 C   -2.551675643462   -3.930258184374    0.000000000000
 H   -1.534855643462   -4.331218184374    0.000000000000
 C   -4.954405643462   -4.279808184374    0.000000000000
 H   -5.816355643462   -4.950318184374    0.000000000000
 C   -2.743445643462   -2.536338184374    0.000000000000
 H   -1.868275643462   -1.888158184374    0.000000000000
 C   -5.167315643462   -2.890098184374    0.000000000000
 H   -6.185245643462   -2.487608184374    0.000000000000
 C   -4.057975643462   -2.038778184374    0.000000000000
 O   -4.214275643462   -0.630048184374    0.000000000000
 H   -5.164675643462   -0.421518184374    0.000000000000
 K   -2.400735643462   -0.358918184374    1.984960000000
 K   -2.400735643462   -0.358918184374   -1.984960000000
 O    6.203636722274    0.927462860170    0.000000000000
 H    7.154039708359    0.718937983619    0.000000000000
 C    6.047334994816    2.336198404689    0.000000000000
 C    4.732806466166    2.833749848227    0.000000000000
 H    3.857638299415    2.185573665770    0.000000000000
 C    4.541033213065    4.227669760523    0.000000000000
 H    3.524211286735    4.628625980745    0.000000000000
 C    5.638704556492    5.102833999006    0.000000000000
 H    5.479848843220    6.182409055388    0.000000000000
 C    6.943766838798    4.577225338308    0.000000000000
 H    7.805721526081    5.247736694417    0.000000000000
 C    7.156674475790    3.187519835509    0.000000000000
 H    8.174610345134    2.785028207892    0.000000000000
