28

 C   -3.684309662496   -4.810645416462    0.000000000000
 H   -3.525449662496   -5.890215416462    0.000000000000
 C   -2.586639662496   -3.935485416462    0.000000000000
 H   -1.569819662496   -4.336445416462    0.000000000000
 C   -4.989369662496   -4.285035416462    0.000000000000
 H   -5.851319662496   -4.955545416462    0.000000000000
 C   -2.778409662496   -2.541565416462    0.000000000000
 H   -1.903239662496   -1.893385416462    0.000000000000
 C   -5.202279662496   -2.895325416462    0.000000000000
 H   -6.220209662496   -2.492835416462    0.000000000000
 C   -4.092939662496   -2.044005416462    0.000000000000
 O   -4.249239662496   -0.635275416462    0.000000000000
 H   -5.199639662496   -0.426745416462    0.000000000000
 K   -2.435699662496   -0.364145416462    1.984960000000
 K   -2.435699662496   -0.364145416462   -1.984960000000
 O    6.267573535030    0.937021617099    0.000000000000
 H    7.217976521115    0.728496740549    0.000000000000
 C    6.111271807572    2.345757161619    0.000000000000
 C    4.796743278922    2.843308605157    0.000000000000
 H    3.921575112171    2.195132422700    0.000000000000
 C    4.604970025821    4.237228517452    0.000000000000
 H    3.588148099491    4.638184737674    0.000000000000
 C    5.702641369248    5.112392755936    0.000000000000
 H    5.543785655976    6.191967812318    0.000000000000
 C    7.007703651554    4.586784095238    0.000000000000
 H    7.869658338837    5.257295451347    0.000000000000
 C    7.220611288546    3.197078592439    0.000000000000
 H    8.238547157890    2.794586964822    0.000000000000
