28

 C   -3.754237700564   -4.821099880638    0.000000000000
 H   -3.595377700564   -5.900669880638    0.000000000000
 C   -2.656567700564   -3.945939880638    0.000000000000
 H   -1.639747700564   -4.346899880638    0.000000000000
 C   -5.059297700564   -4.295489880638    0.000000000000
 H   -5.921247700564   -4.965999880638    0.000000000000
 C   -2.848337700564   -2.552019880638    0.000000000000
 H   -1.973167700564   -1.903839880638    0.000000000000
 C   -5.272207700564   -2.905779880638    0.000000000000
 H   -6.290137700564   -2.503289880638    0.000000000000
 C   -4.162867700564   -2.054459880638    0.000000000000
 O   -4.319167700564   -0.645729880638    0.000000000000
 H   -5.269567700564   -0.437199880638    0.000000000000
 K   -2.505627700564   -0.374599880638    1.984960000000
 K   -2.505627700564   -0.374599880638   -1.984960000000
 O    6.395447160542    0.956139130959    0.000000000000
 H    7.345850146627    0.747614254408    0.000000000000
 C    6.239145433084    2.364874675479    0.000000000000
 C    4.924616904434    2.862426119016    0.000000000000
 H    4.049448737683    2.214249936559    0.000000000000
 C    4.732843651333    4.256346031312    0.000000000000
 H    3.716021725003    4.657302251534    0.000000000000
 C    5.830514994760    5.131510269796    0.000000000000
 H    5.671659281488    6.211085326177    0.000000000000
 C    7.135577277066    4.605901609098    0.000000000000
 H    7.997531964349    5.276412965207    0.000000000000
 C    7.348484914058    3.216196106298    0.000000000000
 H    8.366420783402    2.813704478681    0.000000000000
