28

 C   -3.789201719598   -4.826327112726    0.000000000000
 H   -3.630341719598   -5.905897112726    0.000000000000
 C   -2.691531719598   -3.951167112726    0.000000000000
 H   -1.674711719598   -4.352127112726    0.000000000000
 C   -5.094261719598   -4.300717112726    0.000000000000
 H   -5.956211719598   -4.971227112726    0.000000000000
 C   -2.883301719598   -2.557247112726    0.000000000000
 H   -2.008131719598   -1.909067112726    0.000000000000
 C   -5.307171719598   -2.911007112726    0.000000000000
 H   -6.325101719598   -2.508517112726    0.000000000000
 C   -4.197831719598   -2.059687112726    0.000000000000
 O   -4.354131719598   -0.650957112726    0.000000000000
 H   -5.304531719598   -0.442427112726    0.000000000000
 K   -2.540591719598   -0.379827112726    1.984960000000
 K   -2.540591719598   -0.379827112726   -1.984960000000
 O    6.459383973298    0.965697887889    0.000000000000
 H    7.409786959383    0.757173011338    0.000000000000
 C    6.303082245840    2.374433432409    0.000000000000
 C    4.988553717190    2.871984875946    0.000000000000
 H    4.113385550439    2.223808693489    0.000000000000
 C    4.796780464089    4.265904788242    0.000000000000
 H    3.779958537759    4.666861008464    0.000000000000
 C    5.894451807516    5.141069026726    0.000000000000
 H    5.735596094244    6.220644083107    0.000000000000
 C    7.199514089822    4.615460366028    0.000000000000
 H    8.061468777105    5.285971722137    0.000000000000
 C    7.412421726814    3.225754863228    0.000000000000
 H    8.430357596158    2.823263235611    0.000000000000
