28

 C   -3.824165738632   -4.831554344814    0.000000000000
 H   -3.665305738632   -5.911124344814    0.000000000000
 C   -2.726495738632   -3.956394344814    0.000000000000
 H   -1.709675738632   -4.357354344814    0.000000000000
 C   -5.129225738632   -4.305944344814    0.000000000000
 H   -5.991175738632   -4.976454344814    0.000000000000
 C   -2.918265738632   -2.562474344814    0.000000000000
 H   -2.043095738632   -1.914294344814    0.000000000000
 C   -5.342135738632   -2.916234344814    0.000000000000
 H   -6.360065738632   -2.513744344814    0.000000000000
 C   -4.232795738632   -2.064914344814    0.000000000000
 O   -4.389095738632   -0.656184344814    0.000000000000
 H   -5.339495738632   -0.447654344814    0.000000000000
 K   -2.575555738632   -0.385054344814    1.984960000000
 K   -2.575555738632   -0.385054344814   -1.984960000000
 O    6.523320786054    0.975256644819    0.000000000000
 H    7.473723772139    0.766731768268    0.000000000000
 C    6.367019058596    2.383992189339    0.000000000000
 C    5.052490529946    2.881543632876    0.000000000000
 H    4.177322363195    2.233367450419    0.000000000000
 C    4.860717276845    4.275463545172    0.000000000000
 H    3.843895350515    4.676419765394    0.000000000000
 C    5.958388620272    5.150627783655    0.000000000000
 H    5.799532907000    6.230202840037    0.000000000000
 C    7.263450902578    4.625019122957    0.000000000000
 H    8.125405589861    5.295530479067    0.000000000000
 C    7.476358539570    3.235313620158    0.000000000000
 H    8.494294408914    2.832821992541    0.000000000000
