28

 C   -3.859129757666   -4.836781576902    0.000000000000
 H   -3.700269757666   -5.916351576902    0.000000000000
 C   -2.761459757666   -3.961621576902    0.000000000000
 H   -1.744639757666   -4.362581576902    0.000000000000
 C   -5.164189757666   -4.311171576902    0.000000000000
 H   -6.026139757666   -4.981681576902    0.000000000000
 C   -2.953229757666   -2.567701576902    0.000000000000
 H   -2.078059757666   -1.919521576902    0.000000000000
 C   -5.377099757666   -2.921461576902    0.000000000000
 H   -6.395029757666   -2.518971576902    0.000000000000
 C   -4.267759757666   -2.070141576902    0.000000000000
 O   -4.424059757666   -0.661411576902    0.000000000000
 H   -5.374459757666   -0.452881576902    0.000000000000
 K   -2.610519757666   -0.390281576902    1.984960000000
 K   -2.610519757666   -0.390281576902   -1.984960000000
 O    6.587257598810    0.984815401749    0.000000000000
 H    7.537660584895    0.776290525198    0.000000000000
 C    6.430955871352    2.393550946269    0.000000000000
 C    5.116427342702    2.891102389806    0.000000000000
 H    4.241259175951    2.242926207349    0.000000000000
 C    4.924654089601    4.285022302102    0.000000000000
 H    3.907832163271    4.685978522324    0.000000000000
 C    6.022325433028    5.160186540585    0.000000000000
 H    5.863469719756    6.239761596967    0.000000000000
 C    7.327387715334    4.634577879887    0.000000000000
 H    8.189342402617    5.305089235997    0.000000000000
 C    7.540295352326    3.244872377088    0.000000000000
 H    8.558231221670    2.842380749471    0.000000000000
