28

 C   -3.998985833802   -4.857690505253    0.000000000000
 H   -3.840125833802   -5.937260505253    0.000000000000
 C   -2.901315833802   -3.982530505253    0.000000000000
 H   -1.884495833802   -4.383490505253    0.000000000000
 C   -5.304045833802   -4.332080505253    0.000000000000
 H   -6.165995833802   -5.002590505253    0.000000000000
 C   -3.093085833802   -2.588610505253    0.000000000000
 H   -2.217915833802   -1.940430505253    0.000000000000
 C   -5.516955833802   -2.942370505253    0.000000000000
 H   -6.534885833802   -2.539880505253    0.000000000000
 C   -4.407615833802   -2.091050505253    0.000000000000
 O   -4.563915833802   -0.682320505253    0.000000000000
 H   -5.514315833802   -0.473790505253    0.000000000000
 K   -2.750375833802   -0.411190505253    1.984960000000
 K   -2.750375833802   -0.411190505253   -1.984960000000
 O    6.843004849834    1.023050429468    0.000000000000
 H    7.793407835919    0.814525552917    0.000000000000
 C    6.686703122376    2.431785973988    0.000000000000
 C    5.372174593727    2.929337417525    0.000000000000
 H    4.497006426975    2.281161235068    0.000000000000
 C    5.180401340625    4.323257329821    0.000000000000
 H    4.163579414295    4.724213550043    0.000000000000
 C    6.278072684052    5.198421568305    0.000000000000
 H    6.119216970780    6.277996624686    0.000000000000
 C    7.583134966358    4.672812907607    0.000000000000
 H    8.445089653641    5.343324263716    0.000000000000
 C    7.796042603350    3.283107404807    0.000000000000
 H    8.813978472694    2.880615777190    0.000000000000
