28

 C   -4.033949852837   -4.862917737341    0.000000000000
 H   -3.875089852837   -5.942487737341    0.000000000000
 C   -2.936279852837   -3.987757737341    0.000000000000
 H   -1.919459852837   -4.388717737341    0.000000000000
 C   -5.339009852837   -4.337307737341    0.000000000000
 H   -6.200959852837   -5.007817737341    0.000000000000
 C   -3.128049852837   -2.593837737341    0.000000000000
 H   -2.252879852837   -1.945657737341    0.000000000000
 C   -5.551919852837   -2.947597737341    0.000000000000
 H   -6.569849852837   -2.545107737341    0.000000000000
 C   -4.442579852837   -2.096277737341    0.000000000000
 O   -4.598879852837   -0.687547737341    0.000000000000
 H   -5.549279852837   -0.479017737341    0.000000000000
 K   -2.785339852837   -0.416417737341    1.984960000000
 K   -2.785339852837   -0.416417737341   -1.984960000000
 O    6.906941662590    1.032609186398    0.000000000000
 H    7.857344648675    0.824084309847    0.000000000000
 C    6.750639935132    2.441344730918    0.000000000000
 C    5.436111406483    2.938896174455    0.000000000000
 H    4.560943239731    2.290719991998    0.000000000000
 C    5.244338153381    4.332816086751    0.000000000000
 H    4.227516227051    4.733772306973    0.000000000000
 C    6.342009496808    5.207980325234    0.000000000000
 H    6.183153783536    6.287555381616    0.000000000000
 C    7.647071779114    4.682371664536    0.000000000000
 H    8.509026466397    5.352883020646    0.000000000000
 C    7.859979416106    3.292666161737    0.000000000000
 H    8.877915285450    2.890174534120    0.000000000000
