25

 C    3.581544330275    1.281161310650    0.000000000000
 H    2.828684330275    2.075891310650    0.000000000000
 H    4.217744330275    1.383821310650    0.891020000000
 H    4.217744330275    1.383821310650   -0.891020000000
 C    2.893914330275   -0.062218689350    0.000000000000
 O    1.640494330275   -0.176158689350    0.000000000000
 N    3.671834330275   -1.152188689350    0.000000000000
 H    4.676424330275   -1.022178689350    0.000000000000
 C    3.120604330275   -2.506698689350    0.000000000000
 H    2.504884330275   -2.665068689350    0.895180000000
 H    2.504884330275   -2.665068689350   -0.895180000000
 H    3.952974330275   -3.218088689350    0.000000000000
LI   -0.136005669725    0.014601310650    0.000000000000
 O   -1.627431946089    0.174750185673    0.000000000000
 C   -2.880854503314    0.060817393473    0.000000000000
 C   -3.568487906640   -1.282560379988    0.000000000000
 H   -2.815634016601   -2.077293671321    0.000000000000
 H   -4.204691277607   -1.385224073778   -0.891018274980
 H   -4.204691277607   -1.385224073778    0.891018274980
 N   -3.658769610847    1.150788446878    0.000000000000
 H   -4.663362025695    1.020779597451    0.000000000000
 C   -3.107538188268    2.505299127221    0.000000000000
 H   -2.491813793475    2.663659792968   -0.895177909748
 H   -2.491813793475    2.663659792968    0.895177909748
 H   -3.939900020155    3.216683260034    0.000000000000
