25

 C    3.771289579482    1.260786526671    0.000000000000
 H    3.018429579482    2.055516526671    0.000000000000
 H    4.407489579482    1.363446526671    0.891020000000
 H    4.407489579482    1.363446526671   -0.891020000000
 C    3.083659579482   -0.082593473329    0.000000000000
 O    1.830239579482   -0.196533473329    0.000000000000
 N    3.861579579482   -1.172563473329    0.000000000000
 H    4.866169579482   -1.042553473329    0.000000000000
 C    3.310349579482   -2.527073473329    0.000000000000
 H    2.694629579482   -2.685443473329    0.895180000000
 H    2.694629579482   -2.685443473329   -0.895180000000
 H    4.142719579482   -3.238463473329    0.000000000000
LI    0.053739579482   -0.005773473329    0.000000000000
 O   -1.835400370579    0.197081768367    0.000000000000
 C   -3.088822927804    0.083148976167    0.000000000000
 C   -3.776456331130   -1.260228797295    0.000000000000
 H   -3.023602441091   -2.054962088627    0.000000000000
 H   -4.412659702097   -1.362892491084   -0.891018274980
 H   -4.412659702097   -1.362892491084    0.891018274980
 N   -3.866738035336    1.173120029572    0.000000000000
 H   -4.871330450185    1.043111180144    0.000000000000
 C   -3.315506612758    2.527630709915    0.000000000000
 H   -2.699782217965    2.685991375662   -0.895177909748
 H   -2.699782217965    2.685991375662    0.895177909748
 H   -4.147868444645    3.239014842728    0.000000000000
