25

 C    7.613630875928    0.848197151095    0.000000000000
 H    6.860770875928    1.642927151095    0.000000000000
 H    8.249830875928    0.950857151095    0.891020000000
 H    8.249830875928    0.950857151095   -0.891020000000
 C    6.926000875928   -0.495182848905    0.000000000000
 O    5.672580875928   -0.609122848905    0.000000000000
 N    7.703920875928   -1.585152848905    0.000000000000
 H    8.708510875928   -1.455142848905    0.000000000000
 C    7.152690875928   -2.939662848905    0.000000000000
 H    6.536970875928   -3.098032848905    0.895180000000
 H    6.536970875928   -3.098032848905   -0.895180000000
 H    7.985060875928   -3.651052848905    0.000000000000
LI    3.896080875928   -0.418362848905    0.000000000000
 O   -6.046760966498    0.649296317918    0.000000000000
 C   -7.300183523724    0.535363525718    0.000000000000
 C   -7.987816927050   -0.808014247743    0.000000000000
 H   -7.234963037010   -1.602747539076    0.000000000000
 H   -8.624020298016   -0.910677941533   -0.891018274980
 H   -8.624020298016   -0.910677941533    0.891018274980
 N   -8.078098631256    1.625334579123    0.000000000000
 H   -9.082691046104    1.495325729696    0.000000000000
 C   -7.526867208678    2.979845259466    0.000000000000
 H   -6.911142813885    3.138205925213   -0.895177909748
 H   -6.911142813885    3.138205925213    0.895177909748
 H   -8.359229040565    3.691229392279    0.000000000000
