25

 C    3.818725891784    1.255692830676    0.000000000000
 H    3.065865891784    2.050422830676    0.000000000000
 H    4.454925891784    1.358352830676    0.891020000000
 H    4.454925891784    1.358352830676   -0.891020000000
 C    3.131095891784   -0.087687169324    0.000000000000
 O    1.877675891784   -0.201627169324    0.000000000000
 N    3.909015891784   -1.177657169324    0.000000000000
 H    4.913605891784   -1.047647169324    0.000000000000
 C    3.357785891784   -2.532167169324    0.000000000000
 H    2.742065891784   -2.690537169324    0.895180000000
 H    2.742065891784   -2.690537169324   -0.895180000000
 H    4.190155891784   -3.243557169324    0.000000000000
LI    0.101175891784   -0.010867169324    0.000000000000
 O   -1.887392476701    0.202664664041    0.000000000000
 C   -3.140815033926    0.088731871840    0.000000000000
 C   -3.828448437253   -1.254645901621    0.000000000000
 H   -3.075594547213   -2.049379192954    0.000000000000
 H   -4.464651808219   -1.357309595410   -0.891018274980
 H   -4.464651808219   -1.357309595410    0.891018274980
 N   -3.918730141459    1.178702925246    0.000000000000
 H   -4.923322556307    1.048694075818    0.000000000000
 C   -3.367498718881    2.533213605588    0.000000000000
 H   -2.751774324087    2.691574271336   -0.895177909748
 H   -2.751774324087    2.691574271336    0.895177909748
 H   -4.199860550767    3.244597738401    0.000000000000
