25

 C    3.913598516388    1.245505438687    0.000000000000
 H    3.160738516388    2.040235438687    0.000000000000
 H    4.549798516388    1.348165438687    0.891020000000
 H    4.549798516388    1.348165438687   -0.891020000000
 C    3.225968516388   -0.097874561313    0.000000000000
 O    1.972548516388   -0.211814561313    0.000000000000
 N    4.003888516388   -1.187844561313    0.000000000000
 H    5.008478516388   -1.057834561313    0.000000000000
 C    3.452658516388   -2.542354561313    0.000000000000
 H    2.836938516388   -2.700724561313    0.895180000000
 H    2.836938516388   -2.700724561313   -0.895180000000
 H    4.285028516388   -3.253744561313    0.000000000000
LI    0.196048516388   -0.021054561313    0.000000000000
 O   -1.991376688946    0.213830455388    0.000000000000
 C   -3.244799246171    0.099897663187    0.000000000000
 C   -3.932432649498   -1.243480110274    0.000000000000
 H   -3.179578759458   -2.038213401607    0.000000000000
 H   -4.568636020464   -1.346143804064   -0.891018274980
 H   -4.568636020464   -1.346143804064    0.891018274980
 N   -4.022714353704    1.189868716593    0.000000000000
 H   -5.027306768552    1.059859867165    0.000000000000
 C   -3.471482931126    2.544379396935    0.000000000000
 H   -2.855758536332    2.702740062683   -0.895177909748
 H   -2.855758536332    2.702740062683    0.895177909748
 H   -4.303844763012    3.255763529748    0.000000000000
