25

 C    3.961034828690    1.240411742692    0.000000000000
 H    3.208174828690    2.035141742692    0.000000000000
 H    4.597234828690    1.343071742692    0.891020000000
 H    4.597234828690    1.343071742692   -0.891020000000
 C    3.273404828690   -0.102968257308    0.000000000000
 O    2.019984828690   -0.216908257308    0.000000000000
 N    4.051324828690   -1.192938257308    0.000000000000
 H    5.055914828690   -1.062928257308    0.000000000000
 C    3.500094828690   -2.547448257308    0.000000000000
 H    2.884374828690   -2.705818257308    0.895180000000
 H    2.884374828690   -2.705818257308   -0.895180000000
 H    4.332464828690   -3.258838257308    0.000000000000
LI    0.243484828690   -0.026148257308    0.000000000000
 O   -2.043368795068    0.219413351061    0.000000000000
 C   -3.296791352294    0.105480558861    0.000000000000
 C   -3.984424755620   -1.237897214601    0.000000000000
 H   -3.231570865581   -2.032630505933    0.000000000000
 H   -4.620628126586   -1.340560908390   -0.891018274980
 H   -4.620628126586   -1.340560908390    0.891018274980
 N   -4.074706459826    1.195451612266    0.000000000000
 H   -5.079298874674    1.065442762838    0.000000000000
 C   -3.523475037248    2.549962292609    0.000000000000
 H   -2.907750642455    2.708322958356   -0.895177909748
 H   -2.907750642455    2.708322958356    0.895177909748
 H   -4.355836869135    3.261346425422    0.000000000000
