25

 C    4.055907453293    1.230224350702    0.000000000000
 H    3.303047453293    2.024954350702    0.000000000000
 H    4.692107453293    1.332884350702    0.891020000000
 H    4.692107453293    1.332884350702   -0.891020000000
 C    3.368277453293   -0.113155649298    0.000000000000
 O    2.114857453293   -0.227095649298    0.000000000000
 N    4.146197453293   -1.203125649298    0.000000000000
 H    5.150787453293   -1.073115649298    0.000000000000
 C    3.594967453293   -2.557635649298    0.000000000000
 H    2.979247453293   -2.716005649298    0.895180000000
 H    2.979247453293   -2.716005649298   -0.895180000000
 H    4.427337453293   -3.269025649298    0.000000000000
LI    0.338357453293   -0.036335649298    0.000000000000
 O   -2.147353007313    0.230579142408    0.000000000000
 C   -3.400775564539    0.116646350208    0.000000000000
 C   -4.088408967865   -1.226731423254    0.000000000000
 H   -3.335555077825   -2.021464714586    0.000000000000
 H   -4.724612338831   -1.329395117043   -0.891018274980
 H   -4.724612338831   -1.329395117043    0.891018274980
 N   -4.178690672071    1.206617403613    0.000000000000
 H   -5.183283086919    1.076608554185    0.000000000000
 C   -3.627459249493    2.561128083956    0.000000000000
 H   -3.011734854700    2.719488749703   -0.895177909748
 H   -3.011734854700    2.719488749703    0.895177909748
 H   -4.459821081380    3.272512216769    0.000000000000
