25

 C    4.340525327104    1.199662174734    0.000000000000
 H    3.587665327104    1.994392174734    0.000000000000
 H    4.976725327104    1.302322174734    0.891020000000
 H    4.976725327104    1.302322174734   -0.891020000000
 C    3.652895327104   -0.143717825266    0.000000000000
 O    2.399475327104   -0.257657825266    0.000000000000
 N    4.430815327104   -1.233687825266    0.000000000000
 H    5.435405327104   -1.103677825266    0.000000000000
 C    3.879585327104   -2.588197825266    0.000000000000
 H    3.263865327104   -2.746567825266    0.895180000000
 H    3.263865327104   -2.746567825266   -0.895180000000
 H    4.711955327104   -3.299587825266    0.000000000000
LI    0.622975327104   -0.066897825266    0.000000000000
 O   -2.459305644048    0.264076516449    0.000000000000
 C   -3.712728201273    0.150143724248    0.000000000000
 C   -4.400361604600   -1.193234049213    0.000000000000
 H   -3.647507714560   -1.987967340545    0.000000000000
 H   -5.036564975566   -1.295897743002   -0.891018274980
 H   -5.036564975566   -1.295897743002    0.891018274980
 N   -4.490643308806    1.240114777654    0.000000000000
 H   -5.495235723654    1.110105928226    0.000000000000
 C   -3.939411886228    2.594625457997    0.000000000000
 H   -3.323687491434    2.752986123744   -0.895177909748
 H   -3.323687491434    2.752986123744    0.895177909748
 H   -4.771773718114    3.306009590810    0.000000000000
