25

 C    4.435397951708    1.189474782744    0.000000000000
 H    3.682537951708    1.984204782744    0.000000000000
 H    5.071597951708    1.292134782744    0.891020000000
 H    5.071597951708    1.292134782744   -0.891020000000
 C    3.747767951708   -0.153905217256    0.000000000000
 O    2.494347951708   -0.267845217256    0.000000000000
 N    4.525687951708   -1.243875217256    0.000000000000
 H    5.530277951708   -1.113865217256    0.000000000000
 C    3.974457951708   -2.598385217256    0.000000000000
 H    3.358737951708   -2.756755217256    0.895180000000
 H    3.358737951708   -2.756755217256   -0.895180000000
 H    4.806827951708   -3.309775217256    0.000000000000
LI    0.717847951708   -0.077085217256    0.000000000000
 O   -2.563289856293    0.275242307796    0.000000000000
 C   -3.816712413518    0.161309515595    0.000000000000
 C   -4.504345816845   -1.182068257866    0.000000000000
 H   -3.751491926805   -1.976801549199    0.000000000000
 H   -5.140549187811   -1.284731951655   -0.891018274980
 H   -5.140549187811   -1.284731951655    0.891018274980
 N   -4.594627521051    1.251280569001    0.000000000000
 H   -5.599219935899    1.121271719573    0.000000000000
 C   -4.043396098473    2.605791249343    0.000000000000
 H   -3.427671703679    2.764151915091   -0.895177909748
 H   -3.427671703679    2.764151915091    0.895177909748
 H   -4.875757930359    3.317175382157    0.000000000000
