25

 C    4.672579513217    1.164006302770    0.000000000000
 H    3.919719513217    1.958736302770    0.000000000000
 H    5.308779513217    1.266666302770    0.891020000000
 H    5.308779513217    1.266666302770   -0.891020000000
 C    3.984949513217   -0.179373697230    0.000000000000
 O    2.731529513217   -0.293313697230    0.000000000000
 N    4.762869513217   -1.269343697230    0.000000000000
 H    5.767459513217   -1.139333697230    0.000000000000
 C    4.211639513217   -2.623853697230    0.000000000000
 H    3.595919513217   -2.782223697230    0.895180000000
 H    3.595919513217   -2.782223697230   -0.895180000000
 H    5.044009513217   -3.335243697230    0.000000000000
LI    0.955029513217   -0.102553697230    0.000000000000
 O   -2.823250386905    0.303156786163    0.000000000000
 C   -4.076672944131    0.189223993963    0.000000000000
 C   -4.764306347457   -1.154153779499    0.000000000000
 H   -4.011452457418   -1.948887070831    0.000000000000
 H   -5.400509718423   -1.256817473288   -0.891018274980
 H   -5.400509718423   -1.256817473288    0.891018274980
 N   -4.854588051663    1.279195047368    0.000000000000
 H   -5.859180466511    1.149186197940    0.000000000000
 C   -4.303356629085    2.633705727711    0.000000000000
 H   -3.687632234292    2.792066393458   -0.895177909748
 H   -3.687632234292    2.792066393458    0.895177909748
 H   -5.135718460972    3.345089860524    0.000000000000
