25

 C    4.862324762424    1.143631518791    0.000000000000
 H    4.109464762424    1.938361518791    0.000000000000
 H    5.498524762424    1.246291518791    0.891020000000
 H    5.498524762424    1.246291518791   -0.891020000000
 C    4.174694762424   -0.199748481209    0.000000000000
 O    2.921274762424   -0.313688481209    0.000000000000
 N    4.952614762424   -1.289718481209    0.000000000000
 H    5.957204762424   -1.159708481209    0.000000000000
 C    4.401384762424   -2.644228481209    0.000000000000
 H    3.785664762424   -2.802598481209    0.895180000000
 H    3.785664762424   -2.802598481209   -0.895180000000
 H    5.233754762424   -3.355618481209    0.000000000000
LI    1.144774762424   -0.122928481209    0.000000000000
 O   -3.031218811395    0.325488368857    0.000000000000
 C   -4.284641368621    0.211555576657    0.000000000000
 C   -4.972274771947   -1.131822196805    0.000000000000
 H   -4.219420881907   -1.926555488137    0.000000000000
 H   -5.608478142913   -1.234485890594   -0.891018274980
 H   -5.608478142913   -1.234485890594    0.891018274980
 N   -5.062556476153    1.301526630062    0.000000000000
 H   -6.067148891001    1.171517780634    0.000000000000
 C   -4.511325053575    2.656037310405    0.000000000000
 H   -3.895600658782    2.814397976152   -0.895177909748
 H   -3.895600658782    2.814397976152    0.895177909748
 H   -5.343686885462    3.367421443218    0.000000000000
