25

 C    4.957197387027    1.133444126802    0.000000000000
 H    4.204337387027    1.928174126802    0.000000000000
 H    5.593397387027    1.236104126802    0.891020000000
 H    5.593397387027    1.236104126802   -0.891020000000
 C    4.269567387027   -0.209935873198    0.000000000000
 O    3.016147387027   -0.323875873198    0.000000000000
 N    5.047487387027   -1.299905873198    0.000000000000
 H    6.052077387027   -1.169895873198    0.000000000000
 C    4.496257387027   -2.654415873198    0.000000000000
 H    3.880537387027   -2.812785873198    0.895180000000
 H    3.880537387027   -2.812785873198   -0.895180000000
 H    5.328627387027   -3.365805873198    0.000000000000
LI    1.239647387027   -0.133115873198    0.000000000000
 O   -3.135203023640    0.336654160204    0.000000000000
 C   -4.388625580866    0.222721368004    0.000000000000
 C   -5.076258984192   -1.120656405458    0.000000000000
 H   -4.323405094152   -1.915389696790    0.000000000000
 H   -5.712462355158   -1.223320099247   -0.891018274980
 H   -5.712462355158   -1.223320099247    0.891018274980
 N   -5.166540688398    1.312692421409    0.000000000000
 H   -6.171133103246    1.182683571981    0.000000000000
 C   -4.615309265820    2.667203101752    0.000000000000
 H   -3.999584871027    2.825563767499   -0.895177909748
 H   -3.999584871027    2.825563767499    0.895177909748
 H   -5.447671097707    3.378587234565    0.000000000000
