25

 C    5.004633699329    1.128350430807    0.000000000000
 H    4.251773699329    1.923080430807    0.000000000000
 H    5.640833699329    1.231010430807    0.891020000000
 H    5.640833699329    1.231010430807   -0.891020000000
 C    4.317003699329   -0.215029569193    0.000000000000
 O    3.063583699329   -0.328969569193    0.000000000000
 N    5.094923699329   -1.304999569193    0.000000000000
 H    6.099513699329   -1.174989569193    0.000000000000
 C    4.543693699329   -2.659509569193    0.000000000000
 H    3.927973699329   -2.817879569193    0.895180000000
 H    3.927973699329   -2.817879569193   -0.895180000000
 H    5.376063699329   -3.370899569193    0.000000000000
LI    1.287083699329   -0.138209569193    0.000000000000
 O   -3.187195129763    0.342237055877    0.000000000000
 C   -4.440617686988    0.228304263677    0.000000000000
 C   -5.128251090314   -1.115073509784    0.000000000000
 H   -4.375397200275   -1.909806801117    0.000000000000
 H   -5.764454461281   -1.217737203574   -0.891018274980
 H   -5.764454461281   -1.217737203574    0.891018274980
 N   -5.218532794520    1.318275317082    0.000000000000
 H   -6.223125209369    1.188266467655    0.000000000000
 C   -4.667301371942    2.672785997425    0.000000000000
 H   -4.051576977149    2.831146663172   -0.895177909748
 H   -4.051576977149    2.831146663172    0.895177909748
 H   -5.499663203829    3.384170130238    0.000000000000
