25

 C    5.336687885442    1.092694558844    0.000000000000
 H    4.583827885442    1.887424558844    0.000000000000
 H    5.972887885442    1.195354558844    0.891020000000
 H    5.972887885442    1.195354558844   -0.891020000000
 C    4.649057885442   -0.250685441156    0.000000000000
 O    3.395637885442   -0.364625441156    0.000000000000
 N    5.426977885442   -1.340655441156    0.000000000000
 H    6.431567885442   -1.210645441156    0.000000000000
 C    4.875747885442   -2.695165441156    0.000000000000
 H    4.260027885442   -2.853535441156    0.895180000000
 H    4.260027885442   -2.853535441156   -0.895180000000
 H    5.708117885442   -3.406555441156    0.000000000000
LI    1.619137885442   -0.173865441156    0.000000000000
 O   -3.551139872620    0.381317325592    0.000000000000
 C   -4.804562429845    0.267384533391    0.000000000000
 C   -5.492195833172   -1.075993240070    0.000000000000
 H   -4.739341943132   -1.870726531403    0.000000000000
 H   -6.128399204138   -1.178656933859   -0.891018274980
 H   -6.128399204138   -1.178656933859    0.891018274980
 N   -5.582477537378    1.357355586797    0.000000000000
 H   -6.587069952226    1.227346737369    0.000000000000
 C   -5.031246114800    2.711866267139    0.000000000000
 H   -4.415521720006    2.870226932887   -0.895177909748
 H   -4.415521720006    2.870226932887    0.895177909748
 H   -5.863607946686    3.423250399953    0.000000000000
