25

 C    5.384124197743    1.087600862849    0.000000000000
 H    4.631264197743    1.882330862849    0.000000000000
 H    6.020324197743    1.190260862849    0.891020000000
 H    6.020324197743    1.190260862849   -0.891020000000
 C    4.696494197743   -0.255779137151    0.000000000000
 O    3.443074197743   -0.369719137151    0.000000000000
 N    5.474414197743   -1.345749137151    0.000000000000
 H    6.479004197743   -1.215739137151    0.000000000000
 C    4.923184197743   -2.700259137151    0.000000000000
 H    4.307464197743   -2.858629137151    0.895180000000
 H    4.307464197743   -2.858629137151   -0.895180000000
 H    5.755554197743   -3.411649137151    0.000000000000
LI    1.666574197743   -0.178959137151    0.000000000000
 O   -3.603131978742    0.386900221265    0.000000000000
 C   -4.856554535968    0.272967429065    0.000000000000
 C   -5.544187939294   -1.070410344397    0.000000000000
 H   -4.791334049254   -1.865143635729    0.000000000000
 H   -6.180391310260   -1.173074038186   -0.891018274980
 H   -6.180391310260   -1.173074038186    0.891018274980
 N   -5.634469643500    1.362938482470    0.000000000000
 H   -6.639062058348    1.232929633042    0.000000000000
 C   -5.083238220922    2.717449162813    0.000000000000
 H   -4.467513826129    2.875809828560   -0.895177909748
 H   -4.467513826129    2.875809828560    0.895177909748
 H   -5.915600052809    3.428833295626    0.000000000000
