25

 C    5.431560510045    1.082507166854    0.000000000000
 H    4.678700510045    1.877237166854    0.000000000000
 H    6.067760510045    1.185167166854    0.891020000000
 H    6.067760510045    1.185167166854   -0.891020000000
 C    4.743930510045   -0.260872833146    0.000000000000
 O    3.490510510045   -0.374812833146    0.000000000000
 N    5.521850510045   -1.350842833146    0.000000000000
 H    6.526440510045   -1.220832833146    0.000000000000
 C    4.970620510045   -2.705352833146    0.000000000000
 H    4.354900510045   -2.863722833146    0.895180000000
 H    4.354900510045   -2.863722833146   -0.895180000000
 H    5.802990510045   -3.416742833146    0.000000000000
LI    1.714010510045   -0.184052833146    0.000000000000
 O   -3.655124084865    0.392483116939    0.000000000000
 C   -4.908546642090    0.278550324738    0.000000000000
 C   -5.596180045417   -1.064827448723    0.000000000000
 H   -4.843326155377   -1.859560740056    0.000000000000
 H   -6.232383416383   -1.167491142512   -0.891018274980
 H   -6.232383416383   -1.167491142512    0.891018274980
 N   -5.686461749623    1.368521378144    0.000000000000
 H   -6.691054164471    1.238512528716    0.000000000000
 C   -5.135230327045    2.723032058486    0.000000000000
 H   -4.519505932251    2.881392724234   -0.895177909748
 H   -4.519505932251    2.881392724234    0.895177909748
 H   -5.967592158931    3.434416191300    0.000000000000
