25

 C    5.526433134649    1.072319774865    0.000000000000
 H    4.773573134649    1.867049774865    0.000000000000
 H    6.162633134649    1.174979774865    0.891020000000
 H    6.162633134649    1.174979774865   -0.891020000000
 C    4.838803134649   -0.271060225135    0.000000000000
 O    3.585383134649   -0.385000225135    0.000000000000
 N    5.616723134649   -1.361030225135    0.000000000000
 H    6.621313134649   -1.231020225135    0.000000000000
 C    5.065493134649   -2.715540225135    0.000000000000
 H    4.449773134649   -2.873910225135    0.895180000000
 H    4.449773134649   -2.873910225135   -0.895180000000
 H    5.897863134649   -3.426930225135    0.000000000000
LI    1.808883134649   -0.194240225135    0.000000000000
 O   -3.759108297110    0.403648908286    0.000000000000
 C   -5.012530854335    0.289716116085    0.000000000000
 C   -5.700164257661   -1.053661657376    0.000000000000
 H   -4.947310367622   -1.848394948709    0.000000000000
 H   -6.336367628628   -1.156325351166   -0.891018274980
 H   -6.336367628628   -1.156325351166    0.891018274980
 N   -5.790445961868    1.379687169491    0.000000000000
 H   -6.795038376716    1.249678320063    0.000000000000
 C   -5.239214539289    2.734197849833    0.000000000000
 H   -4.623490144496    2.892558515581   -0.895177909748
 H   -4.623490144496    2.892558515581    0.895177909748
 H   -6.071576371176    3.445581982646    0.000000000000
