25

 C    5.668742071554    1.057038686880    0.000000000000
 H    4.915882071554    1.851768686880    0.000000000000
 H    6.304942071554    1.159698686880    0.891020000000
 H    6.304942071554    1.159698686880   -0.891020000000
 C    4.981112071554   -0.286341313120    0.000000000000
 O    3.727692071554   -0.400281313120    0.000000000000
 N    5.759032071554   -1.376311313120    0.000000000000
 H    6.763622071554   -1.246301313120    0.000000000000
 C    5.207802071554   -2.730821313120    0.000000000000
 H    4.592082071554   -2.889191313120    0.895180000000
 H    4.592082071554   -2.889191313120   -0.895180000000
 H    6.040172071554   -3.442211313120    0.000000000000
LI    1.951192071554   -0.209521313120    0.000000000000
 O   -3.915084615477    0.420397595306    0.000000000000
 C   -5.168507172703    0.306464803106    0.000000000000
 C   -5.856140576029   -1.036912970356    0.000000000000
 H   -5.103286685989   -1.831646261688    0.000000000000
 H   -6.492343946995   -1.139576664145   -0.891018274980
 H   -6.492343946995   -1.139576664145    0.891018274980
 N   -5.946422280235    1.396435856511    0.000000000000
 H   -6.951014695083    1.266427007083    0.000000000000
 C   -5.395190857657    2.750946536854    0.000000000000
 H   -4.779466462864    2.909307202601   -0.895177909748
 H   -4.779466462864    2.909307202601    0.895177909748
 H   -6.227552689544    3.462330669667    0.000000000000
