25

 C    5.716178383856    1.051944990886    0.000000000000
 H    4.963318383856    1.846674990886    0.000000000000
 H    6.352378383856    1.154604990886    0.891020000000
 H    6.352378383856    1.154604990886   -0.891020000000
 C    5.028548383856   -0.291435009114    0.000000000000
 O    3.775128383856   -0.405375009114    0.000000000000
 N    5.806468383856   -1.381405009114    0.000000000000
 H    6.811058383856   -1.251395009114    0.000000000000
 C    5.255238383856   -2.735915009114    0.000000000000
 H    4.639518383856   -2.894285009114    0.895180000000
 H    4.639518383856   -2.894285009114   -0.895180000000
 H    6.087608383856   -3.447305009114    0.000000000000
LI    1.998628383856   -0.214615009114    0.000000000000
 O   -3.967076721600    0.425980490979    0.000000000000
 C   -5.220499278825    0.312047698779    0.000000000000
 C   -5.908132682151   -1.031330074682    0.000000000000
 H   -5.155278792112   -1.826063366015    0.000000000000
 H   -6.544336053118   -1.133993768472   -0.891018274980
 H   -6.544336053118   -1.133993768472    0.891018274980
 N   -5.998414386357    1.402018752185    0.000000000000
 H   -7.003006801206    1.272009902757    0.000000000000
 C   -5.447182963779    2.756529432527    0.000000000000
 H   -4.831458568986    2.914890098275   -0.895177909748
 H   -4.831458568986    2.914890098275    0.895177909748
 H   -6.279544795666    3.467913565340    0.000000000000
