25

 C    5.858487320761    1.036663902901    0.000000000000
 H    5.105627320761    1.831393902901    0.000000000000
 H    6.494687320761    1.139323902901    0.891020000000
 H    6.494687320761    1.139323902901   -0.891020000000
 C    5.170857320761   -0.306716097099    0.000000000000
 O    3.917437320761   -0.420656097099    0.000000000000
 N    5.948777320761   -1.396686097099    0.000000000000
 H    6.953367320761   -1.266676097099    0.000000000000
 C    5.397547320761   -2.751196097099    0.000000000000
 H    4.781827320761   -2.909566097099    0.895180000000
 H    4.781827320761   -2.909566097099   -0.895180000000
 H    6.229917320761   -3.462586097099    0.000000000000
LI    2.140937320761   -0.229896097099    0.000000000000
 O   -4.123053039967    0.442729178000    0.000000000000
 C   -5.376475597192    0.328796385799    0.000000000000
 C   -6.064109000519   -1.014581387662    0.000000000000
 H   -5.311255110479   -1.809314678994    0.000000000000
 H   -6.700312371485   -1.117245081451   -0.891018274980
 H   -6.700312371485   -1.117245081451    0.891018274980
 N   -6.154390704725    1.418767439205    0.000000000000
 H   -7.158983119573    1.288758589777    0.000000000000
 C   -5.603159282147    2.773278119548    0.000000000000
 H   -4.987434887353    2.931638785295   -0.895177909748
 H   -4.987434887353    2.931638785295    0.895177909748
 H   -6.435521114033    3.484662252361    0.000000000000
