25

 C    5.953359945365    1.026476510912    0.000000000000
 H    5.200499945365    1.821206510912    0.000000000000
 H    6.589559945365    1.129136510912    0.891020000000
 H    6.589559945365    1.129136510912   -0.891020000000
 C    5.265729945365   -0.316903489088    0.000000000000
 O    4.012309945365   -0.430843489088    0.000000000000
 N    6.043649945365   -1.406873489088    0.000000000000
 H    7.048239945365   -1.276863489088    0.000000000000
 C    5.492419945365   -2.761383489088    0.000000000000
 H    4.876699945365   -2.919753489088    0.895180000000
 H    4.876699945365   -2.919753489088   -0.895180000000
 H    6.324789945365   -3.472773489088    0.000000000000
LI    2.235809945365   -0.240083489088    0.000000000000
 O   -4.227037252212    0.453894969347    0.000000000000
 C   -5.480459809437    0.339962177146    0.000000000000
 C   -6.168093212764   -1.003415596315    0.000000000000
 H   -5.415239322724   -1.798148887647    0.000000000000
 H   -6.804296583730   -1.106079290104   -0.891018274980
 H   -6.804296583730   -1.106079290104    0.891018274980
 N   -6.258374916970    1.429933230552    0.000000000000
 H   -7.262967331818    1.299924381124    0.000000000000
 C   -5.707143494392    2.784443910895    0.000000000000
 H   -5.091419099598    2.942804576642   -0.895177909748
 H   -5.091419099598    2.942804576642    0.895177909748
 H   -6.539505326278    3.495828043708    0.000000000000
