25

 C    6.048232569969    1.016289118922    0.000000000000
 H    5.295372569969    1.811019118922    0.000000000000
 H    6.684432569969    1.118949118922    0.891020000000
 H    6.684432569969    1.118949118922   -0.891020000000
 C    5.360602569969   -0.327090881078    0.000000000000
 O    4.107182569969   -0.441030881078    0.000000000000
 N    6.138522569969   -1.417060881078    0.000000000000
 H    7.143112569969   -1.287050881078    0.000000000000
 C    5.587292569969   -2.771570881078    0.000000000000
 H    4.971572569969   -2.929940881078    0.895180000000
 H    4.971572569969   -2.929940881078   -0.895180000000
 H    6.419662569969   -3.482960881078    0.000000000000
LI    2.330682569969   -0.250270881078    0.000000000000
 O   -4.331021464457    0.465060760694    0.000000000000
 C   -5.584444021682    0.351127968493    0.000000000000
 C   -6.272077425009   -0.992249804968    0.000000000000
 H   -5.519223534969   -1.786983096301    0.000000000000
 H   -6.908280795975   -1.094913498757   -0.891018274980
 H   -6.908280795975   -1.094913498757    0.891018274980
 N   -6.362359129215    1.441099021899    0.000000000000
 H   -7.366951544063    1.311090172471    0.000000000000
 C   -5.811127706637    2.795609702242    0.000000000000
 H   -5.195403311843    2.953970367989   -0.895177909748
 H   -5.195403311843    2.953970367989    0.895177909748
 H   -6.643489538523    3.506993835055    0.000000000000
