25

 C    6.095668882270    1.011195422928    0.000000000000
 H    5.342808882270    1.805925422928    0.000000000000
 H    6.731868882270    1.113855422928    0.891020000000
 H    6.731868882270    1.113855422928   -0.891020000000
 C    5.408038882270   -0.332184577072    0.000000000000
 O    4.154618882270   -0.446124577072    0.000000000000
 N    6.185958882270   -1.422154577072    0.000000000000
 H    7.190548882270   -1.292144577072    0.000000000000
 C    5.634728882270   -2.776664577072    0.000000000000
 H    5.019008882270   -2.935034577072    0.895180000000
 H    5.019008882270   -2.935034577072   -0.895180000000
 H    6.467098882270   -3.488054577072    0.000000000000
LI    2.378118882270   -0.255364577072    0.000000000000
 O   -4.383013570579    0.470643656367    0.000000000000
 C   -5.636436127805    0.356710864167    0.000000000000
 C   -6.324069531131   -0.986666909294    0.000000000000
 H   -5.571215641091   -1.781400200627    0.000000000000
 H   -6.960272902097   -1.089330603084   -0.891018274980
 H   -6.960272902097   -1.089330603084    0.891018274980
 N   -6.414351235337    1.446681917572    0.000000000000
 H   -7.418943650185    1.316673068145    0.000000000000
 C   -5.863119812759    2.801192597915    0.000000000000
 H   -5.247395417966    2.959553263662   -0.895177909748
 H   -5.247395417966    2.959553263662    0.895177909748
 H   -6.695481644646    3.512576730728    0.000000000000
