25

 C    6.285414131478    0.990820638949    0.000000000000
 H    5.532554131478    1.785550638949    0.000000000000
 H    6.921614131478    1.093480638949    0.891020000000
 H    6.921614131478    1.093480638949   -0.891020000000
 C    5.597784131478   -0.352559361051    0.000000000000
 O    4.344364131478   -0.466499361051    0.000000000000
 N    6.375704131478   -1.442529361051    0.000000000000
 H    7.380294131478   -1.312519361051    0.000000000000
 C    5.824474131478   -2.797039361051    0.000000000000
 H    5.208754131478   -2.955409361051    0.895180000000
 H    5.208754131478   -2.955409361051   -0.895180000000
 H    6.656844131478   -3.508429361051    0.000000000000
LI    2.567864131478   -0.275739361051    0.000000000000
 O   -4.590981995069    0.492975239061    0.000000000000
 C   -5.844404552295    0.379042446861    0.000000000000
 C   -6.532037955621   -0.964335326601    0.000000000000
 H   -5.779184065581   -1.759068617933    0.000000000000
 H   -7.168241326587   -1.066999020390   -0.891018274980
 H   -7.168241326587   -1.066999020390    0.891018274980
 N   -6.622319659827    1.469013500266    0.000000000000
 H   -7.626912074675    1.339004650838    0.000000000000
 C   -6.071088237249    2.823524180609    0.000000000000
 H   -5.455363842456    2.981884846356   -0.895177909748
 H   -5.455363842456    2.981884846356    0.895177909748
 H   -6.903450069136    3.534908313422    0.000000000000
