25

 C    6.332850443779    0.985726942954    0.000000000000
 H    5.579990443779    1.780456942954    0.000000000000
 H    6.969050443779    1.088386942954    0.891020000000
 H    6.969050443779    1.088386942954   -0.891020000000
 C    5.645220443779   -0.357653057046    0.000000000000
 O    4.391800443779   -0.471593057046    0.000000000000
 N    6.423140443779   -1.447623057046    0.000000000000
 H    7.427730443779   -1.317613057046    0.000000000000
 C    5.871910443779   -2.802133057046    0.000000000000
 H    5.256190443779   -2.960503057046    0.895180000000
 H    5.256190443779   -2.960503057046   -0.895180000000
 H    6.704280443779   -3.513523057046    0.000000000000
LI    2.615300443779   -0.280833057046    0.000000000000
 O   -4.642974101192    0.498558134735    0.000000000000
 C   -5.896396658417    0.384625342534    0.000000000000
 C   -6.584030061743   -0.958752430927    0.000000000000
 H   -5.831176171704   -1.753485722260    0.000000000000
 H   -7.220233432710   -1.061416124717   -0.891018274980
 H   -7.220233432710   -1.061416124717    0.891018274980
 N   -6.674311765950    1.474596395940    0.000000000000
 H   -7.678904180798    1.344587546512    0.000000000000
 C   -6.123080343371    2.829107076282    0.000000000000
 H   -5.507355948578    2.987467742030   -0.895177909748
 H   -5.507355948578    2.987467742030    0.895177909748
 H   -6.955442175258    3.540491209095    0.000000000000
