25

 C    6.380286756081    0.980633246959    0.000000000000
 H    5.627426756081    1.775363246959    0.000000000000
 H    7.016486756081    1.083293246959    0.891020000000
 H    7.016486756081    1.083293246959   -0.891020000000
 C    5.692656756081   -0.362746753041    0.000000000000
 O    4.439236756081   -0.476686753041    0.000000000000
 N    6.470576756081   -1.452716753041    0.000000000000
 H    7.475166756081   -1.322706753041    0.000000000000
 C    5.919346756081   -2.807226753041    0.000000000000
 H    5.303626756081   -2.965596753041    0.895180000000
 H    5.303626756081   -2.965596753041   -0.895180000000
 H    6.751716756081   -3.518616753041    0.000000000000
LI    2.662736756081   -0.285926753041    0.000000000000
 O   -4.694966207314    0.504141030408    0.000000000000
 C   -5.948388764540    0.390208238208    0.000000000000
 C   -6.636022167866   -0.953169535254    0.000000000000
 H   -5.883168277826   -1.747902826586    0.000000000000
 H   -7.272225538832   -1.055833229043   -0.891018274980
 H   -7.272225538832   -1.055833229043    0.891018274980
 N   -6.726303872072    1.480179291613    0.000000000000
 H   -7.730896286920    1.350170442185    0.000000000000
 C   -6.175072449494    2.834689971956    0.000000000000
 H   -5.559348054700    2.993050637703   -0.895177909748
 H   -5.559348054700    2.993050637703    0.895177909748
 H   -7.007434281381    3.546074104769    0.000000000000
