25

 C    6.427723068383    0.975539550964    0.000000000000
 H    5.674863068383    1.770269550964    0.000000000000
 H    7.063923068383    1.078199550964    0.891020000000
 H    7.063923068383    1.078199550964   -0.891020000000
 C    5.740093068383   -0.367840449036    0.000000000000
 O    4.486673068383   -0.481780449036    0.000000000000
 N    6.518013068383   -1.457810449036    0.000000000000
 H    7.522603068383   -1.327800449036    0.000000000000
 C    5.966783068383   -2.812320449036    0.000000000000
 H    5.351063068383   -2.970690449036    0.895180000000
 H    5.351063068383   -2.970690449036   -0.895180000000
 H    6.799153068383   -3.523710449036    0.000000000000
LI    2.710173068383   -0.291020449036    0.000000000000
 O   -4.746958313437    0.509723926082    0.000000000000
 C   -6.000380870662    0.395791133881    0.000000000000
 C   -6.688014273988   -0.947586639580    0.000000000000
 H   -5.935160383949   -1.742319930913    0.000000000000
 H   -7.324217644955   -1.050250333370   -0.891018274980
 H   -7.324217644955   -1.050250333370    0.891018274980
 N   -6.778295978194    1.485762187287    0.000000000000
 H   -7.782888393043    1.355753337859    0.000000000000
 C   -6.227064555616    2.840272867629    0.000000000000
 H   -5.611340160823    2.998633533377   -0.895177909748
 H   -5.611340160823    2.998633533377    0.895177909748
 H   -7.059426387503    3.551657000442    0.000000000000
