25

 C    6.475159380685    0.970445854969    0.000000000000
 H    5.722299380685    1.765175854969    0.000000000000
 H    7.111359380685    1.073105854969    0.891020000000
 H    7.111359380685    1.073105854969   -0.891020000000
 C    5.787529380685   -0.372934145031    0.000000000000
 O    4.534109380685   -0.486874145031    0.000000000000
 N    6.565449380685   -1.462904145031    0.000000000000
 H    7.570039380685   -1.332894145031    0.000000000000
 C    6.014219380685   -2.817414145031    0.000000000000
 H    5.398499380685   -2.975784145031    0.895180000000
 H    5.398499380685   -2.975784145031   -0.895180000000
 H    6.846589380685   -3.528804145031    0.000000000000
LI    2.757609380685   -0.296114145031    0.000000000000
 O   -4.798950419559    0.515306821755    0.000000000000
 C   -6.052372976784    0.401374029555    0.000000000000
 C   -6.740006380111   -0.942003743907    0.000000000000
 H   -5.987152490071   -1.736737035239    0.000000000000
 H   -7.376209751077   -1.044667437696   -0.891018274980
 H   -7.376209751077   -1.044667437696    0.891018274980
 N   -6.830288084317    1.491345082960    0.000000000000
 H   -7.834880499165    1.361336233532    0.000000000000
 C   -6.279056661739    2.845855763303    0.000000000000
 H   -5.663332266945    3.004216429050   -0.895177909748
 H   -5.663332266945    3.004216429050    0.895177909748
 H   -7.111418493625    3.557239896116    0.000000000000
