25

 C    6.664904629892    0.950071070990    0.000000000000
 H    5.912044629892    1.744801070990    0.000000000000
 H    7.301104629892    1.052731070990    0.891020000000
 H    7.301104629892    1.052731070990   -0.891020000000
 C    5.977274629892   -0.393308929010    0.000000000000
 O    4.723854629892   -0.507248929010    0.000000000000
 N    6.755194629892   -1.483278929010    0.000000000000
 H    7.759784629892   -1.353268929010    0.000000000000
 C    6.203964629892   -2.837788929010    0.000000000000
 H    5.588244629892   -2.996158929010    0.895180000000
 H    5.588244629892   -2.996158929010   -0.895180000000
 H    7.036334629892   -3.549178929010    0.000000000000
LI    2.947354629892   -0.316488929010    0.000000000000
 O   -5.006918844049    0.537638404449    0.000000000000
 C   -6.260341401274    0.423705612248    0.000000000000
 C   -6.947974804601   -0.919672161213    0.000000000000
 H   -6.195120914561   -1.714405452545    0.000000000000
 H   -7.584178175567   -1.022335855002   -0.891018274980
 H   -7.584178175567   -1.022335855002    0.891018274980
 N   -7.038256508807    1.513676665654    0.000000000000
 H   -8.042848923655    1.383667816226    0.000000000000
 C   -6.487025086229    2.868187345997    0.000000000000
 H   -5.871300691435    3.026548011744   -0.895177909748
 H   -5.871300691435    3.026548011744    0.895177909748
 H   -7.319386918115    3.579571478810    0.000000000000
