25

 C    6.712340942194    0.944977374996    0.000000000000
 H    5.959480942194    1.739707374996    0.000000000000
 H    7.348540942194    1.047637374996    0.891020000000
 H    7.348540942194    1.047637374996   -0.891020000000
 C    6.024710942194   -0.398402625004    0.000000000000
 O    4.771290942194   -0.512342625004    0.000000000000
 N    6.802630942194   -1.488372625004    0.000000000000
 H    7.807220942194   -1.358362625004    0.000000000000
 C    6.251400942194   -2.842882625004    0.000000000000
 H    5.635680942194   -3.001252625004    0.895180000000
 H    5.635680942194   -3.001252625004   -0.895180000000
 H    7.083770942194   -3.554272625004    0.000000000000
LI    2.994790942194   -0.321582625004    0.000000000000
 O   -5.058910950171    0.543221300122    0.000000000000
 C   -6.312333507397    0.429288507922    0.000000000000
 C   -6.999966910723   -0.914089265539    0.000000000000
 H   -6.247113020684   -1.708822556872    0.000000000000
 H   -7.636170281689   -1.016752959329   -0.891018274980
 H   -7.636170281689   -1.016752959329    0.891018274980
 N   -7.090248614929    1.519259561327    0.000000000000
 H   -8.094841029777    1.389250711900    0.000000000000
 C   -6.539017192351    2.873770241670    0.000000000000
 H   -5.923292797558    3.032130907417   -0.895177909748
 H   -5.923292797558    3.032130907417    0.895177909748
 H   -7.371379024238    3.585154374483    0.000000000000
