25

 C    6.759777254495    0.939883679001    0.000000000000
 H    6.006917254495    1.734613679001    0.000000000000
 H    7.395977254495    1.042543679001    0.891020000000
 H    7.395977254495    1.042543679001   -0.891020000000
 C    6.072147254495   -0.403496320999    0.000000000000
 O    4.818727254495   -0.517436320999    0.000000000000
 N    6.850067254495   -1.493466320999    0.000000000000
 H    7.854657254495   -1.363456320999    0.000000000000
 C    6.298837254495   -2.847976320999    0.000000000000
 H    5.683117254495   -3.006346320999    0.895180000000
 H    5.683117254495   -3.006346320999   -0.895180000000
 H    7.131207254495   -3.559366320999    0.000000000000
LI    3.042227254495   -0.326676320999    0.000000000000
 O   -5.110903056294    0.548804195796    0.000000000000
 C   -6.364325613519    0.434871403595    0.000000000000
 C   -7.051959016846   -0.908506369866    0.000000000000
 H   -6.299105126806   -1.703239661198    0.000000000000
 H   -7.688162387812   -1.011170063655   -0.891018274980
 H   -7.688162387812   -1.011170063655    0.891018274980
 N   -7.142240721052    1.524842457001    0.000000000000
 H   -8.146833135900    1.394833607573    0.000000000000
 C   -6.591009298474    2.879353137344    0.000000000000
 H   -5.975284903680    3.037713803091   -0.895177909748
 H   -5.975284903680    3.037713803091    0.895177909748
 H   -7.423371130360    3.590737270157    0.000000000000
