25

 C    6.854649879099    0.929696287011    0.000000000000
 H    6.101789879099    1.724426287011    0.000000000000
 H    7.490849879099    1.032356287011    0.891020000000
 H    7.490849879099    1.032356287011   -0.891020000000
 C    6.167019879099   -0.413683712989    0.000000000000
 O    4.913599879099   -0.527623712989    0.000000000000
 N    6.944939879099   -1.503653712989    0.000000000000
 H    7.949529879099   -1.373643712989    0.000000000000
 C    6.393709879099   -2.858163712989    0.000000000000
 H    5.777989879099   -3.016533712989    0.895180000000
 H    5.777989879099   -3.016533712989   -0.895180000000
 H    7.226079879099   -3.569553712989    0.000000000000
LI    3.137099879099   -0.336863712989    0.000000000000
 O   -5.214887268539    0.559969987143    0.000000000000
 C   -6.468309825764    0.446037194942    0.000000000000
 C   -7.155943229091   -0.897340578519    0.000000000000
 H   -6.403089339051   -1.692073869851    0.000000000000
 H   -7.792146600057   -1.000004272308   -0.891018274980
 H   -7.792146600057   -1.000004272308    0.891018274980
 N   -7.246224933297    1.536008248348    0.000000000000
 H   -8.250817348145    1.405999398920    0.000000000000
 C   -6.694993510718    2.890518928691    0.000000000000
 H   -6.079269115925    3.048879594438   -0.895177909748
 H   -6.079269115925    3.048879594438    0.895177909748
 H   -7.527355342605    3.601903061504    0.000000000000
