25

 C    6.949522503703    0.919508895022    0.000000000000
 H    6.196662503703    1.714238895022    0.000000000000
 H    7.585722503703    1.022168895022    0.891020000000
 H    7.585722503703    1.022168895022   -0.891020000000
 C    6.261892503703   -0.423871104978    0.000000000000
 O    5.008472503703   -0.537811104978    0.000000000000
 N    7.039812503703   -1.513841104978    0.000000000000
 H    8.044402503703   -1.383831104978    0.000000000000
 C    6.488582503703   -2.868351104978    0.000000000000
 H    5.872862503703   -3.026721104978    0.895180000000
 H    5.872862503703   -3.026721104978   -0.895180000000
 H    7.320952503703   -3.579741104978    0.000000000000
LI    3.231972503703   -0.347051104978    0.000000000000
 O   -5.318871480784    0.571135778490    0.000000000000
 C   -6.572294038009    0.457202986289    0.000000000000
 C   -7.259927441335   -0.886174787172    0.000000000000
 H   -6.507073551296   -1.680908078505    0.000000000000
 H   -7.896130812302   -0.988838480961   -0.891018274980
 H   -7.896130812302   -0.988838480961    0.891018274980
 N   -7.350209145542    1.547174039695    0.000000000000
 H   -8.354801560390    1.417165190267    0.000000000000
 C   -6.798977722963    2.901684720037    0.000000000000
 H   -6.183253328170    3.060045385785   -0.895177909748
 H   -6.183253328170    3.060045385785    0.895177909748
 H   -7.631339554850    3.613068852851    0.000000000000
