25

 C    7.091831440608    0.904227807038    0.000000000000
 H    6.338971440608    1.698957807038    0.000000000000
 H    7.728031440608    1.006887807038    0.891020000000
 H    7.728031440608    1.006887807038   -0.891020000000
 C    6.404201440608   -0.439152192962    0.000000000000
 O    5.150781440608   -0.553092192962    0.000000000000
 N    7.182121440608   -1.529122192962    0.000000000000
 H    8.186711440608   -1.399112192962    0.000000000000
 C    6.630891440608   -2.883632192962    0.000000000000
 H    6.015171440608   -3.042002192962    0.895180000000
 H    6.015171440608   -3.042002192962   -0.895180000000
 H    7.463261440608   -3.595022192962    0.000000000000
LI    3.374281440608   -0.362332192962    0.000000000000
 O   -5.474847799151    0.587884465510    0.000000000000
 C   -6.728270356377    0.473951673310    0.000000000000
 C   -7.415903759703   -0.869426100152    0.000000000000
 H   -6.663049869663   -1.664159391484    0.000000000000
 H   -8.052107130669   -0.972089793941   -0.891018274980
 H   -8.052107130669   -0.972089793941    0.891018274980
 N   -7.506185463909    1.563922726715    0.000000000000
 H   -8.510777878757    1.433913877287    0.000000000000
 C   -6.954954041331    2.918433407058    0.000000000000
 H   -6.339229646537    3.076794072805   -0.895177909748
 H   -6.339229646537    3.076794072805    0.895177909748
 H   -7.787315873217    3.629817539871    0.000000000000
