25

 C    7.423885626721    0.868571935074    0.000000000000
 H    6.671025626721    1.663301935074    0.000000000000
 H    8.060085626721    0.971231935074    0.891020000000
 H    8.060085626721    0.971231935074   -0.891020000000
 C    6.736255626721   -0.474808064926    0.000000000000
 O    5.482835626721   -0.588748064926    0.000000000000
 N    7.514175626721   -1.564778064926    0.000000000000
 H    8.518765626721   -1.434768064926    0.000000000000
 C    6.962945626721   -2.919288064926    0.000000000000
 H    6.347225626721   -3.077658064926    0.895180000000
 H    6.347225626721   -3.077658064926   -0.895180000000
 H    7.795315626721   -3.630678064926    0.000000000000
LI    3.706335626721   -0.397988064926    0.000000000000
 O   -5.838792542008    0.626964735224    0.000000000000
 C   -7.092215099234    0.513031943024    0.000000000000
 C   -7.779848502560   -0.830345830437    0.000000000000
 H   -7.026994612521   -1.625079121770    0.000000000000
 H   -8.416051873526   -0.933009524227   -0.891018274980
 H   -8.416051873526   -0.933009524227    0.891018274980
 N   -7.870130206766    1.603002996429    0.000000000000
 H   -8.874722621614    1.472994147002    0.000000000000
 C   -7.318898784188    2.957513676772    0.000000000000
 H   -6.703174389395    3.115874342519   -0.895177909748
 H   -6.703174389395    3.115874342519    0.895177909748
 H   -8.151260616075    3.668897809585    0.000000000000
