25

 C    7.471321939022    0.863478239080    0.000000000000
 H    6.718461939022    1.658208239080    0.000000000000
 H    8.107521939022    0.966138239080    0.891020000000
 H    8.107521939022    0.966138239080   -0.891020000000
 C    6.783691939022   -0.479901760920    0.000000000000
 O    5.530271939022   -0.593841760920    0.000000000000
 N    7.561611939022   -1.569871760920    0.000000000000
 H    8.566201939022   -1.439861760920    0.000000000000
 C    7.010381939022   -2.924381760920    0.000000000000
 H    6.394661939022   -3.082751760920    0.895180000000
 H    6.394661939022   -3.082751760920   -0.895180000000
 H    7.842751939022   -3.635771760920    0.000000000000
LI    3.753771939022   -0.403081760920    0.000000000000
 O   -5.890784648131    0.632547630898    0.000000000000
 C   -7.144207205356    0.518614838697    0.000000000000
 C   -7.831840608683   -0.824762934764    0.000000000000
 H   -7.078986718643   -1.619496226096    0.000000000000
 H   -8.468043979649   -0.927426628553   -0.891018274980
 H   -8.468043979649   -0.927426628553    0.891018274980
 N   -7.922122312889    1.608585892103    0.000000000000
 H   -8.926714727737    1.478577042675    0.000000000000
 C   -7.370890890311    2.963096572446    0.000000000000
 H   -6.755166495517    3.121457238193   -0.895177909748
 H   -6.755166495517    3.121457238193    0.895177909748
 H   -8.203252722197    3.674480705259    0.000000000000
