25

 C    7.566194563626    0.853290847090    0.000000000000
 H    6.813334563626    1.648020847090    0.000000000000
 H    8.202394563626    0.955950847090    0.891020000000
 H    8.202394563626    0.955950847090   -0.891020000000
 C    6.878564563626   -0.490089152910    0.000000000000
 O    5.625144563626   -0.604029152910    0.000000000000
 N    7.656484563626   -1.580059152910    0.000000000000
 H    8.661074563626   -1.450049152910    0.000000000000
 C    7.105254563626   -2.934569152910    0.000000000000
 H    6.489534563626   -3.092939152910    0.895180000000
 H    6.489534563626   -3.092939152910   -0.895180000000
 H    7.937624563626   -3.645959152910    0.000000000000
LI    3.848644563626   -0.413269152910    0.000000000000
 O   -5.994768860376    0.643713422245    0.000000000000
 C   -7.248191417601    0.529780630044    0.000000000000
 C   -7.935824820928   -0.813597143417    0.000000000000
 H   -7.182970930888   -1.608330434749    0.000000000000
 H   -8.572028191894   -0.916260837206   -0.891018274980
 H   -8.572028191894   -0.916260837206    0.891018274980
 N   -8.026106525134    1.619751683450    0.000000000000
 H   -9.030698939982    1.489742834022    0.000000000000
 C   -7.474875102555    2.974262363793    0.000000000000
 H   -6.859150707762    3.132623029540   -0.895177909748
 H   -6.859150707762    3.132623029540    0.895177909748
 H   -8.307236934442    3.685646496606    0.000000000000
