14

 P   -0.731997861649    0.434236789732    0.141657938387
 O   -1.318997861649    1.484236789732    1.096657938387
 O   -0.997997861649    0.482236789732   -1.370342061613
 O    0.931002138351    0.260236789732    0.428657938387
 O   -1.046997861649   -1.123763210268    0.733657938387
 C    1.668002138351    1.425236789732    0.051657938387
 H    1.337002138351    2.308236789732    0.627657938387
 H    1.553002138351    1.636236789732   -1.026342061613
 H    2.728002138351    1.223236789732    0.271657938387
 C   -2.437997861649   -1.446763210268    0.683657938387
 H   -2.815997861649   -1.419763210268   -0.354342061613
 H   -3.030997861649   -0.747763210268    1.299657938387
 H   -2.547997861649   -2.466763210268    1.083657938387
RB    0.867098480663   -0.369451290997   -0.345557305278
