14

 P   -0.729412888042    0.459708368800    0.172975800989
 O   -1.316412888042    1.509708368800    1.127975800989
 O   -0.995412888042    0.507708368800   -1.339024199011
 O    0.933587111958    0.285708368800    0.459975800989
 O   -1.044412888042   -1.098291631200    0.764975800989
 C    1.670587111958    1.450708368800    0.082975800989
 H    1.339587111958    2.333708368800    0.658975800989
 H    1.555587111958    1.661708368800   -0.995024199011
 H    2.730587111958    1.248708368800    0.302975800989
 C   -2.435412888042   -1.421291631200    0.714975800989
 H   -2.813412888042   -1.394291631200   -0.323024199011
 H   -3.028412888042   -0.722291631200    1.330975800989
 H   -2.545412888042   -2.441291631200    1.114975800989
RB    0.863293088502   -0.406948520002   -0.391660967042
