14

 P   -0.724242940828    0.510651526935    0.235611526194
 O   -1.311242940828    1.560651526935    1.190611526194
 O   -0.990242940828    0.558651526935   -1.276388473806
 O    0.938757059172    0.336651526935    0.522611526194
 O   -1.039242940828   -1.047348473065    0.827611526194
 C    1.675757059172    1.501651526935    0.145611526194
 H    1.344757059172    2.384651526935    0.721611526194
 H    1.560757059172    1.712651526935   -0.932388473806
 H    2.735757059172    1.299651526935    0.365611526194
 C   -2.430242940828   -1.370348473065    0.777611526194
 H   -2.808242940828   -1.343348473065   -0.260388473806
 H   -3.023242940828   -0.671348473065    1.393611526194
 H   -2.540242940828   -2.390348473065    1.177611526194
RB    0.855682304179   -0.481942978012   -0.483868290570
