14

 P   -0.721657967220    0.536123106003    0.266929388796
 O   -1.308657967220    1.586123106003    1.221929388796
 O   -0.987657967220    0.584123106003   -1.245070611204
 O    0.941342032780    0.362123106003    0.553929388796
 O   -1.036657967220   -1.021876893997    0.858929388796
 C    1.678342032780    1.527123106003    0.176929388796
 H    1.347342032780    2.410123106003    0.752929388796
 H    1.563342032780    1.738123106003   -0.901070611204
 H    2.738342032780    1.325123106003    0.396929388796
 C   -2.427657967220   -1.344876893997    0.808929388796
 H   -2.805657967220   -1.317876893997   -0.229070611204
 H   -3.020657967220   -0.645876893997    1.424929388796
 H   -2.537657967220   -2.364876893997    1.208929388796
RB    0.851876912018   -0.519440207017   -0.529971952335
