14

 P   -0.711318072791    0.638009422275    0.392200839205
 O   -1.298318072791    1.688009422275    1.347200839205
 O   -0.977318072791    0.686009422275   -1.119799160795
 O    0.951681927209    0.464009422275    0.679200839205
 O   -1.026318072791   -0.919990577725    0.984200839205
 C    1.688681927209    1.629009422275    0.302200839205
 H    1.357681927209    2.512009422275    0.878200839205
 H    1.573681927209    1.840009422275   -0.775799160795
 H    2.748681927209    1.427009422275    0.522200839205
 C   -2.417318072791   -1.242990577725    0.934200839205
 H   -2.795318072791   -1.215990577725   -0.103799160795
 H   -3.010318072791   -0.543990577725    1.550200839205
 H   -2.527318072791   -2.262990577725    1.334200839205
RB    0.836655343372   -0.669429123037   -0.714386599391
