14

 P   -0.698393204755    0.765367317614    0.548790152216
 O   -1.285393204755    1.815367317614    1.503790152216
 O   -0.964393204755    0.813367317614   -0.963209847784
 O    0.964606795245    0.591367317614    0.835790152216
 O   -1.013393204755   -0.792632682386    1.140790152216
 C    1.701606795245    1.756367317614    0.458790152216
 H    1.370606795245    2.639367317614    1.034790152216
 H    1.586606795245    1.967367317614   -0.619209847784
 H    2.761606795245    1.554367317614    0.678790152216
 C   -2.404393204755   -1.115632682386    1.090790152216
 H   -2.782393204755   -1.088632682386    0.052790152216
 H   -2.997393204755   -0.416632682386    1.706790152216
 H   -2.514393204755   -2.135632682386    1.490790152216
RB    0.817628382565   -0.856915268062   -0.944904908213
