14

 P   -0.688053310326    0.867253633885    0.674061602625
 O   -1.275053310326    1.917253633885    1.629061602625
 O   -0.954053310326    0.915253633885   -0.837938397375
 O    0.974946689674    0.693253633885    0.961061602625
 O   -1.003053310326   -0.690746366115    1.266061602625
 C    1.711946689674    1.858253633885    0.584061602625
 H    1.380946689674    2.741253633885    1.160061602625
 H    1.596946689674    2.069253633885   -0.493938397375
 H    2.771946689674    1.656253633885    0.804061602625
 C   -2.394053310326   -1.013746366115    1.216061602625
 H   -2.772053310326   -0.986746366115    0.178061602625
 H   -2.987053310326   -0.314746366115    1.832061602625
 H   -2.504053310326   -2.033746366115    1.616061602625
RB    0.802406813919   -1.006904184082   -1.129319555270
