14

 P   -0.677713415897    0.969139950156    0.799333053033
 O   -1.264713415897    2.019139950156    1.754333053033
 O   -0.943713415897    1.017139950156   -0.712666946967
 O    0.985286584103    0.795139950156    1.086333053033
 O   -0.992713415897   -0.588860049844    1.391333053033
 C    1.722286584103    1.960139950156    0.709333053033
 H    1.391286584103    2.843139950156    1.285333053033
 H    1.607286584103    2.171139950156   -0.368666946967
 H    2.782286584103    1.758139950156    0.929333053033
 C   -2.383713415897   -0.911860049844    1.341333053033
 H   -2.761713415897   -0.884860049844    0.303333053033
 H   -2.976713415897   -0.212860049844    1.957333053033
 H   -2.493713415897   -1.931860049844    1.741333053033
RB    0.787185245273   -1.156893100102   -1.313734202327
