14

 P   -0.672543468682    1.020083108292    0.861968778238
 O   -1.259543468682    2.070083108292    1.816968778238
 O   -0.938543468682    1.068083108292   -0.650031221762
 O    0.990456531318    0.846083108292    1.148968778238
 O   -0.987543468682   -0.537916891708    1.453968778238
 C    1.727456531318    2.011083108292    0.771968778238
 H    1.396456531318    2.894083108292    1.347968778238
 H    1.612456531318    2.222083108292   -0.306031221762
 H    2.787456531318    1.809083108292    0.991968778238
 C   -2.378543468682   -0.860916891708    1.403968778238
 H   -2.756543468682   -0.833916891708    0.365968778238
 H   -2.971543468682   -0.161916891708    2.019968778238
 H   -2.488543468682   -1.880916891708    1.803968778238
RB    0.779574460950   -1.231887558113   -1.405941525855
