14

 P   -0.669958495075    1.045554687360    0.893286640840
 O   -1.256958495075    2.095554687360    1.848286640840
 O   -0.935958495075    1.093554687360   -0.618713359160
 O    0.993041504925    0.871554687360    1.180286640840
 O   -0.984958495075   -0.512445312640    1.485286640840
 C    1.730041504925    2.036554687360    0.803286640840
 H    1.399041504925    2.919554687360    1.379286640840
 H    1.615041504925    2.247554687360   -0.274713359160
 H    2.790041504925    1.834554687360    1.023286640840
 C   -2.375958495075   -0.835445312640    1.435286640840
 H   -2.753958495075   -0.808445312640    0.397286640840
 H   -2.968958495075   -0.136445312640    2.051286640840
 H   -2.485958495075   -1.855445312640    1.835286640840
RB    0.775769068789   -1.269384787118   -1.452045187619
