14

 P   -0.664788547860    1.096497845495    0.955922366045
 O   -1.251788547860    2.146497845495    1.910922366045
 O   -0.930788547860    1.144497845495   -0.556077633955
 O    0.998211452140    0.922497845495    1.242922366045
 O   -0.979788547860   -0.461502154505    1.547922366045
 C    1.735211452140    2.087497845495    0.865922366045
 H    1.404211452140    2.970497845495    1.441922366045
 H    1.620211452140    2.298497845495   -0.212077633955
 H    2.795211452140    1.885497845495    1.085922366045
 C   -2.370788547860   -0.784502154505    1.497922366045
 H   -2.748788547860   -0.757502154505    0.459922366045
 H   -2.963788547860   -0.085502154505    2.113922366045
 H   -2.480788547860   -1.804502154505    1.897922366045
RB    0.768158284466   -1.344379245128   -1.544252511148
