14

 P   -0.644108759002    1.300270478038    1.206465266862
 O   -1.231108759002    2.350270478038    2.161465266862
 O   -0.910108759002    1.348270478038   -0.305534733138
 O    1.018891240998    1.126270478038    1.493465266862
 O   -0.959108759002   -0.257729521962    1.798465266862
 C    1.755891240998    2.291270478038    1.116465266862
 H    1.424891240998    3.174270478038    1.692465266862
 H    1.640891240998    2.502270478038    0.038465266862
 H    2.815891240998    2.089270478038    1.336465266862
 C   -2.350108759002   -0.580729521962    1.748465266862
 H   -2.728108759002   -0.553729521962    0.710465266862
 H   -2.943108759002    0.118270478038    2.364465266862
 H   -2.460108759002   -1.600729521962    2.148465266862
RB    0.737715147175   -1.644357077168   -1.913081805262
