14

 P   -0.636353838180    1.376685215241    1.300418854669
 O   -1.223353838180    2.426685215241    2.255418854669
 O   -0.902353838180    1.424685215241   -0.211581145331
 O    1.026646161820    1.202685215241    1.587418854669
 O   -0.951353838180   -0.181314784759    1.892418854669
 C    1.763646161820    2.367685215241    1.210418854669
 H    1.432646161820    3.250685215241    1.786418854669
 H    1.648646161820    2.578685215241    0.132418854669
 H    2.823646161820    2.165685215241    1.430418854669
 C   -2.342353838180   -0.504314784759    1.842418854669
 H   -2.720353838180   -0.477314784759    0.804418854669
 H   -2.935353838180    0.194685215241    2.458418854669
 H   -2.452353838180   -1.524314784759    2.242418854669
RB    0.726298970690   -1.756848764183   -2.051392790554
