14

 P   -0.633768864573    1.402156794309    1.331736717271
 O   -1.220768864573    2.452156794309    2.286736717271
 O   -0.899768864573    1.450156794309   -0.180263282729
 O    1.029231135427    1.228156794309    1.618736717271
 O   -0.948768864573   -0.155843205691    1.923736717271
 C    1.766231135427    2.393156794309    1.241736717271
 H    1.435231135427    3.276156794309    1.817736717271
 H    1.651231135427    2.604156794309    0.163736717271
 H    2.826231135427    2.191156794309    1.461736717271
 C   -2.339768864573   -0.478843205691    1.873736717271
 H   -2.717768864573   -0.451843205691    0.835736717271
 H   -2.932768864573    0.220156794309    2.489736717271
 H   -2.449768864573   -1.498843205691    2.273736717271
RB    0.722493578529   -1.794345993188   -2.097496452319
