14

 P   -0.631183890966    1.427628373377    1.363054579873
 O   -1.218183890966    2.477628373377    2.318054579873
 O   -0.897183890966    1.475628373377   -0.148945420127
 O    1.031816109034    1.253628373377    1.650054579873
 O   -0.946183890966   -0.130371626623    1.955054579873
 C    1.768816109034    2.418628373377    1.273054579873
 H    1.437816109034    3.301628373377    1.849054579873
 H    1.653816109034    2.629628373377    0.195054579873
 H    2.828816109034    2.216628373377    1.493054579873
 C   -2.337183890966   -0.453371626623    1.905054579873
 H   -2.715183890966   -0.426371626623    0.867054579873
 H   -2.930183890966    0.245628373377    2.521054579873
 H   -2.447183890966   -1.473371626623    2.305054579873
RB    0.718688186367   -1.831843222193   -2.143600114083
