14

 P   -0.628598917358    1.453099952445    1.394372442476
 O   -1.215598917358    2.503099952445    2.349372442476
 O   -0.894598917358    1.501099952445   -0.117627557524
 O    1.034401082642    1.279099952445    1.681372442476
 O   -0.943598917358   -0.104900047555    1.986372442476
 C    1.771401082642    2.444099952445    1.304372442476
 H    1.440401082642    3.327099952445    1.880372442476
 H    1.656401082642    2.655099952445    0.226372442476
 H    2.831401082642    2.242099952445    1.524372442476
 C   -2.334598917358   -0.427900047555    1.936372442476
 H   -2.712598917358   -0.400900047555    0.898372442476
 H   -2.927598917358    0.271099952445    2.552372442476
 H   -2.444598917358   -1.447900047555    2.336372442476
RB    0.714882794206   -1.869340451198   -2.189703775847
