14

 P   -0.623428970144    1.504043110580    1.457008167680
 O   -1.210428970144    2.554043110580    2.412008167680
 O   -0.889428970144    1.552043110580   -0.054991832320
 O    1.039571029856    1.330043110580    1.744008167680
 O   -0.938428970144   -0.053956889420    2.049008167680
 C    1.776571029856    2.495043110580    1.367008167680
 H    1.445571029856    3.378043110580    1.943008167680
 H    1.661571029856    2.706043110580    0.289008167680
 H    2.836571029856    2.293043110580    1.587008167680
 C   -2.329428970144   -0.376956889420    1.999008167680
 H   -2.707428970144   -0.349956889420    0.961008167680
 H   -2.922428970144    0.322043110580    2.615008167680
 H   -2.439428970144   -1.396956889420    2.399008167680
RB    0.707272009883   -1.944334909208   -2.281911099375
