14

 P   -0.615674049322    1.580457847784    1.550961755487
 O   -1.202674049322    2.630457847784    2.505961755487
 O   -0.881674049322    1.628457847784    0.038961755487
 O    1.047325950678    1.406457847784    1.837961755487
 O   -0.930674049322    0.022457847784    2.142961755487
 C    1.784325950678    2.571457847784    1.460961755487
 H    1.453325950678    3.454457847784    2.036961755487
 H    1.669325950678    2.782457847784    0.382961755487
 H    2.844325950678    2.369457847784    1.680961755487
 C   -2.321674049322   -0.300542152216    2.092961755487
 H   -2.699674049322   -0.273542152216    1.054961755487
 H   -2.914674049322    0.398457847784    2.708961755487
 H   -2.431674049322   -1.320542152216    2.492961755487
RB    0.695855833399   -2.056826596223   -2.420222084668
