14

 P   -0.605334154893    1.682344164055    1.676233205896
 O   -1.192334154893    2.732344164055    2.631233205896
 O   -0.871334154893    1.730344164055    0.164233205896
 O    1.057665845107    1.508344164055    1.963233205896
 O   -0.920334154893    0.124344164055    2.268233205896
 C    1.794665845107    2.673344164055    1.586233205896
 H    1.463665845107    3.556344164055    2.162233205896
 H    1.679665845107    2.884344164055    0.508233205896
 H    2.854665845107    2.471344164055    1.806233205896
 C   -2.311334154893   -0.198655835945    2.218233205896
 H   -2.689334154893   -0.171655835945    1.180233205896
 H   -2.904334154893    0.500344164055    2.834233205896
 H   -2.421334154893   -1.218655835945    2.618233205896
RB    0.680634264753   -2.206815512244   -2.604636731725
