14

 P   -0.602749181285    1.707815743123    1.707551068498
 O   -1.189749181285    2.757815743123    2.662551068498
 O   -0.868749181285    1.755815743123    0.195551068498
 O    1.060250818715    1.533815743123    1.994551068498
 O   -0.917749181285    0.149815743123    2.299551068498
 C    1.797250818715    2.698815743123    1.617551068498
 H    1.466250818715    3.581815743123    2.193551068498
 H    1.682250818715    2.909815743123    0.539551068498
 H    2.857250818715    2.496815743123    1.837551068498
 C   -2.308749181285   -0.173184256877    2.249551068498
 H   -2.686749181285   -0.146184256877    1.211551068498
 H   -2.901749181285    0.525815743123    2.865551068498
 H   -2.418749181285   -1.193184256877    2.649551068498
RB    0.676828872592   -2.244312741249   -2.650740393489
