14

 P   -0.592409286856    1.809702059394    1.832822518907
 O   -1.179409286856    2.859702059394    2.787822518907
 O   -0.858409286856    1.857702059394    0.320822518907
 O    1.070590713144    1.635702059394    2.119822518907
 O   -0.907409286856    0.251702059394    2.424822518907
 C    1.807590713144    2.800702059394    1.742822518907
 H    1.476590713144    3.683702059394    2.318822518907
 H    1.692590713144    3.011702059394    0.664822518907
 H    2.867590713144    2.598702059394    1.962822518907
 C   -2.298409286856   -0.071297940606    2.374822518907
 H   -2.676409286856   -0.044297940606    1.336822518907
 H   -2.891409286856    0.627702059394    2.990822518907
 H   -2.408409286856   -1.091297940606    2.774822518907
RB    0.661607303946   -2.394301657269   -2.835155040546
