14

 P   -0.576899445213    1.962531533801    2.020729694520
 O   -1.163899445213    3.012531533801    2.975729694520
 O   -0.842899445213    2.010531533801    0.508729694520
 O    1.086100554787    1.788531533801    2.307729694520
 O   -0.891899445213    0.404531533801    2.612729694520
 C    1.823100554787    2.953531533801    1.930729694520
 H    1.492100554787    3.836531533801    2.506729694520
 H    1.708100554787    3.164531533801    0.852729694520
 H    2.883100554787    2.751531533801    2.150729694520
 C   -2.282899445213    0.081531533801    2.562729694520
 H   -2.660899445213    0.108531533801    1.524729694520
 H   -2.875899445213    0.780531533801    3.178729694520
 H   -2.392899445213   -0.938468466199    2.962729694520
RB    0.638774950977   -2.619285031299   -3.111777011132
