14

 P   -0.574314471605    1.988003112869    2.052047557122
 O   -1.161314471605    3.038003112869    3.007047557122
 O   -0.840314471605    2.036003112869    0.540047557122
 O    1.088685528395    1.814003112869    2.339047557122
 O   -0.889314471605    0.430003112869    2.644047557122
 C    1.825685528395    2.979003112869    1.962047557122
 H    1.494685528395    3.862003112869    2.538047557122
 H    1.710685528395    3.190003112869    0.884047557122
 H    2.885685528395    2.777003112869    2.182047557122
 C   -2.280314471605    0.107003112869    2.594047557122
 H   -2.658314471605    0.134003112869    1.556047557122
 H   -2.873314471605    0.806003112869    3.210047557122
 H   -2.390314471605   -0.912996887131    2.994047557122
RB    0.634969558816   -2.656782260304   -3.157880672896
