14

 P   -0.571729497998    2.013474691937    2.083365419724
 O   -1.158729497998    3.063474691937    3.038365419724
 O   -0.837729497998    2.061474691937    0.571365419724
 O    1.091270502002    1.839474691937    2.370365419724
 O   -0.886729497998    0.455474691937    2.675365419724
 C    1.828270502002    3.004474691937    1.993365419724
 H    1.497270502002    3.887474691937    2.569365419724
 H    1.713270502002    3.215474691937    0.915365419724
 H    2.888270502002    2.802474691937    2.213365419724
 C   -2.277729497998    0.132474691937    2.625365419724
 H   -2.655729497998    0.159474691937    1.587365419724
 H   -2.870729497998    0.831474691937    3.241365419724
 H   -2.387729497998   -0.887525308063    3.025365419724
RB    0.631164166654   -2.694279489309   -3.203984334660
