14

 P   -0.569144524391    2.038946271005    2.114683282327
 O   -1.156144524391    3.088946271005    3.069683282327
 O   -0.835144524391    2.086946271005    0.602683282327
 O    1.093855475609    1.864946271005    2.401683282327
 O   -0.884144524391    0.480946271005    2.706683282327
 C    1.830855475609    3.029946271005    2.024683282327
 H    1.499855475609    3.912946271005    2.600683282327
 H    1.715855475609    3.240946271005    0.946683282327
 H    2.890855475609    2.827946271005    2.244683282327
 C   -2.275144524391    0.157946271005    2.656683282327
 H   -2.653144524391    0.184946271005    1.618683282327
 H   -2.868144524391    0.856946271005    3.272683282327
 H   -2.385144524391   -0.862053728995    3.056683282327
RB    0.627358774493   -2.731776718314   -3.250087996424
