14

 P   -0.566559550784    2.064417850073    2.146001144929
 O   -1.153559550784    3.114417850073    3.101001144929
 O   -0.832559550784    2.112417850073    0.634001144929
 O    1.096440449216    1.890417850073    2.433001144929
 O   -0.881559550784    0.506417850073    2.738001144929
 C    1.833440449216    3.055417850073    2.056001144929
 H    1.502440449216    3.938417850073    2.632001144929
 H    1.718440449216    3.266417850073    0.978001144929
 H    2.893440449216    2.853417850073    2.276001144929
 C   -2.272559550784    0.183417850073    2.688001144929
 H   -2.650559550784    0.210417850073    1.650001144929
 H   -2.865559550784    0.882417850073    3.304001144929
 H   -2.382559550784   -0.836582149927    3.088001144929
RB    0.623553382331   -2.769273947319   -3.296191658189
