14

 P   -0.561389603569    2.115361008208    2.208636870133
 O   -1.148389603569    3.165361008208    3.163636870133
 O   -0.827389603569    2.163361008208    0.696636870133
 O    1.101610396431    1.941361008208    2.495636870133
 O   -0.876389603569    0.557361008208    2.800636870133
 C    1.838610396431    3.106361008208    2.118636870133
 H    1.507610396431    3.989361008208    2.694636870133
 H    1.723610396431    3.317361008208    1.040636870133
 H    2.898610396431    2.904361008208    2.338636870133
 C   -2.267389603569    0.234361008208    2.750636870133
 H   -2.645389603569    0.261361008208    1.712636870133
 H   -2.860389603569    0.933361008208    3.366636870133
 H   -2.377389603569   -0.785638991792    3.150636870133
RB    0.615942598009   -2.844268405329   -3.388398981717
