14

 P   -0.558804629962    2.140832587276    2.239954732736
 O   -1.145804629962    3.190832587276    3.194954732736
 O   -0.824804629962    2.188832587276    0.727954732736
 O    1.104195370038    1.966832587276    2.526954732736
 O   -0.873804629962    0.582832587276    2.831954732736
 C    1.841195370038    3.131832587276    2.149954732736
 H    1.510195370038    4.014832587276    2.725954732736
 H    1.726195370038    3.342832587276    1.071954732736
 H    2.901195370038    2.929832587276    2.369954732736
 C   -2.264804629962    0.259832587276    2.781954732736
 H   -2.642804629962    0.286832587276    1.743954732736
 H   -2.857804629962    0.958832587276    3.397954732736
 H   -2.374804629962   -0.760167412724    3.181954732736
RB    0.612137205847   -2.881765634334   -3.434502643481
