14

 P   -0.553634682747    2.191775745412    2.302590457940
 O   -1.140634682747    3.241775745412    3.257590457940
 O   -0.819634682747    2.239775745412    0.790590457940
 O    1.109365317253    2.017775745412    2.589590457940
 O   -0.868634682747    0.633775745412    2.894590457940
 C    1.846365317253    3.182775745412    2.212590457940
 H    1.515365317253    4.065775745412    2.788590457940
 H    1.731365317253    3.393775745412    1.134590457940
 H    2.906365317253    2.980775745412    2.432590457940
 C   -2.259634682747    0.310775745412    2.844590457940
 H   -2.637634682747    0.337775745412    1.806590457940
 H   -2.852634682747    1.009775745412    3.460590457940
 H   -2.369634682747   -0.709224254588    3.244590457940
RB    0.604526421524   -2.956760092344   -3.526709967010
