14

 P   -0.548464735533    2.242718903547    2.365226183144
 O   -1.135464735533    3.292718903547    3.320226183144
 O   -0.814464735533    2.290718903547    0.853226183144
 O    1.114535264467    2.068718903547    2.652226183144
 O   -0.863464735533    0.684718903547    2.957226183144
 C    1.851535264467    3.233718903547    2.275226183144
 H    1.520535264467    4.116718903547    2.851226183144
 H    1.736535264467    3.444718903547    1.197226183144
 H    2.911535264467    3.031718903547    2.495226183144
 C   -2.254464735533    0.361718903547    2.907226183144
 H   -2.632464735533    0.388718903547    1.869226183144
 H   -2.847464735533    1.060718903547    3.523226183144
 H   -2.364464735533   -0.658281096453    3.307226183144
RB    0.596915637201   -3.031754550354   -3.618917290538
