14

 P   -0.545879761925    2.268190482615    2.396544045747
 O   -1.132879761925    3.318190482615    3.351544045747
 O   -0.811879761925    2.316190482615    0.884544045747
 O    1.117120238075    2.094190482615    2.683544045747
 O   -0.860879761925    0.710190482615    2.988544045747
 C    1.854120238075    3.259190482615    2.306544045747
 H    1.523120238075    4.142190482615    2.882544045747
 H    1.739120238075    3.470190482615    1.228544045747
 H    2.914120238075    3.057190482615    2.526544045747
 C   -2.251879761925    0.387190482615    2.938544045747
 H   -2.629879761925    0.414190482615    1.900544045747
 H   -2.844879761925    1.086190482615    3.554544045747
 H   -2.361879761925   -0.632809517385    3.338544045747
RB    0.593110245040   -3.069251779359   -3.665020952302
