14

 P   -0.540709814711    2.319133640751    2.459179770951
 O   -1.127709814711    3.369133640751    3.414179770951
 O   -0.806709814711    2.367133640751    0.947179770951
 O    1.122290185289    2.145133640751    2.746179770951
 O   -0.855709814711    0.761133640751    3.051179770951
 C    1.859290185289    3.310133640751    2.369179770951
 H    1.528290185289    4.193133640751    2.945179770951
 H    1.744290185289    3.521133640751    1.291179770951
 H    2.919290185289    3.108133640751    2.589179770951
 C   -2.246709814711    0.438133640751    3.001179770951
 H   -2.624709814711    0.465133640751    1.963179770951
 H   -2.839709814711    1.137133640751    3.617179770951
 H   -2.356709814711   -0.581866359249    3.401179770951
RB    0.585499460717   -3.144246237370   -3.757228275831
