14

 P   -0.527784946674    2.446491536090    2.615769083962
 O   -1.114784946674    3.496491536090    3.570769083962
 O   -0.793784946674    2.494491536090    1.103769083962
 O    1.135215053326    2.272491536090    2.902769083962
 O   -0.842784946674    0.888491536090    3.207769083962
 C    1.872215053326    3.437491536090    2.525769083962
 H    1.541215053326    4.320491536090    3.101769083962
 H    1.757215053326    3.648491536090    1.447769083962
 H    2.932215053326    3.235491536090    2.745769083962
 C   -2.233784946674    0.565491536090    3.157769083962
 H   -2.611784946674    0.592491536090    2.119769083962
 H   -2.826784946674    1.264491536090    3.773769083962
 H   -2.343784946674   -0.454508463910    3.557769083962
RB    0.566472499910   -3.331732382395   -3.987746584652
