14

 P   -0.520030025853    2.522906273293    2.709722671769
 O   -1.107030025853    3.572906273293    3.664722671769
 O   -0.786030025853    2.570906273293    1.197722671769
 O    1.142969974147    2.348906273293    2.996722671769
 O   -0.835030025853    0.964906273293    3.301722671769
 C    1.879969974147    3.513906273293    2.619722671769
 H    1.548969974147    4.396906273293    3.195722671769
 H    1.764969974147    3.724906273293    1.541722671769
 H    2.939969974147    3.311906273293    2.839722671769
 C   -2.226030025853    0.641906273293    3.251722671769
 H   -2.604030025853    0.668906273293    2.213722671769
 H   -2.819030025853    1.340906273293    3.867722671769
 H   -2.336030025853   -0.378093726707    3.651722671769
RB    0.555056323426   -3.444224069410   -4.126057569945
