14

 P   -0.512275105031    2.599321010497    2.803676259575
 O   -1.099275105031    3.649321010497    3.758676259575
 O   -0.778275105031    2.647321010497    1.291676259575
 O    1.150724894969    2.425321010497    3.090676259575
 O   -0.827275105031    1.041321010497    3.395676259575
 C    1.887724894969    3.590321010497    2.713676259575
 H    1.556724894969    4.473321010497    3.289676259575
 H    1.772724894969    3.801321010497    1.635676259575
 H    2.947724894969    3.388321010497    2.933676259575
 C   -2.218275105031    0.718321010497    3.345676259575
 H   -2.596275105031    0.745321010497    2.307676259575
 H   -2.811275105031    1.417321010497    3.961676259575
 H   -2.328275105031   -0.301678989503    3.745676259575
RB    0.543640146941   -3.556715756425   -4.264368555238
