14

 P   -0.507105157816    2.650264168632    2.866311984780
 O   -1.094105157816    3.700264168632    3.821311984780
 O   -0.773105157816    2.698264168632    1.354311984780
 O    1.155894842184    2.476264168632    3.153311984780
 O   -0.822105157816    1.092264168632    3.458311984780
 C    1.892894842184    3.641264168632    2.776311984780
 H    1.561894842184    4.524264168632    3.352311984780
 H    1.777894842184    3.852264168632    1.698311984780
 H    2.952894842184    3.439264168632    2.996311984780
 C   -2.213105157816    0.769264168632    3.408311984780
 H   -2.591105157816    0.796264168632    2.370311984780
 H   -2.806105157816    1.468264168632    4.024311984780
 H   -2.323105157816   -0.250735831368    3.808311984780
RB    0.536029362618   -3.631710214435   -4.356575878766
