14

 P   -0.504520184209    2.675735747700    2.897629847382
 O   -1.091520184209    3.725735747700    3.852629847382
 O   -0.770520184209    2.723735747700    1.385629847382
 O    1.158479815791    2.501735747700    3.184629847382
 O   -0.819520184209    1.117735747700    3.489629847382
 C    1.895479815791    3.666735747700    2.807629847382
 H    1.564479815791    4.549735747700    3.383629847382
 H    1.780479815791    3.877735747700    1.729629847382
 H    2.955479815791    3.464735747700    3.027629847382
 C   -2.210520184209    0.794735747700    3.439629847382
 H   -2.588520184209    0.821735747700    2.401629847382
 H   -2.803520184209    1.493735747700    4.055629847382
 H   -2.320520184209   -0.225264252300    3.839629847382
RB    0.532223970457   -3.669207443440   -4.402679540530
