13

 C   -3.575413747403    0.000000067436    0.000000000000
 H   -4.670931747403    0.000000067436    0.000000000000
 C   -2.843946747403    1.209982067436    0.000000000000
 H   -3.381829747403    2.168601067436    0.000000000000
 C   -2.843946747403   -1.209982932564    0.000000000000
 H   -3.381828747403   -2.168601932564    0.000000000000
 C   -1.438776747403    1.215097067436    0.000000000000
 H   -0.892146747403    2.167255067436    0.000000000000
 C   -1.438776747403   -1.215096932564    0.000000000000
 H   -0.892146747403   -2.167253932564    0.000000000000
 C   -0.643739747403    0.000000067436    0.000000000000
 O    0.642607252597    0.000000067436    0.000000000000
RB    1.842607252597    0.000000067436    0.000000000000
