13

 C   -3.623131521945    0.000000067436    0.000000000000
 H   -4.718649521945    0.000000067436    0.000000000000
 C   -2.891664521945    1.209982067436    0.000000000000
 H   -3.429547521945    2.168601067436    0.000000000000
 C   -2.891664521945   -1.209982932564    0.000000000000
 H   -3.429546521945   -2.168601932564    0.000000000000
 C   -1.486494521945    1.215097067436    0.000000000000
 H   -0.939864521945    2.167255067436    0.000000000000
 C   -1.486494521945   -1.215096932564    0.000000000000
 H   -0.939864521945   -2.167253932564    0.000000000000
 C   -0.691457521945    0.000000067436    0.000000000000
 O    0.594889478055    0.000000067436    0.000000000000
RB    1.894889478055    0.000000067436    0.000000000000
