13

 C   -3.766284845574    0.000000067436    0.000000000000
 H   -4.861802845574    0.000000067436    0.000000000000
 C   -3.034817845574    1.209982067436    0.000000000000
 H   -3.572700845574    2.168601067436    0.000000000000
 C   -3.034817845574   -1.209982932564    0.000000000000
 H   -3.572699845574   -2.168601932564    0.000000000000
 C   -1.629647845574    1.215097067436    0.000000000000
 H   -1.083017845574    2.167255067436    0.000000000000
 C   -1.629647845574   -1.215096932564    0.000000000000
 H   -1.083017845574   -2.167253932564    0.000000000000
 C   -0.834610845574    0.000000067436    0.000000000000
 O    0.451736154426    0.000000067436    0.000000000000
RB    2.051736154426    0.000000067436    0.000000000000
