13

 C   -3.814002620116    0.000000067436    0.000000000000
 H   -4.909520620116    0.000000067436    0.000000000000
 C   -3.082535620116    1.209982067436    0.000000000000
 H   -3.620418620116    2.168601067436    0.000000000000
 C   -3.082535620116   -1.209982932564    0.000000000000
 H   -3.620417620116   -2.168601932564    0.000000000000
 C   -1.677365620116    1.215097067436    0.000000000000
 H   -1.130735620116    2.167255067436    0.000000000000
 C   -1.677365620116   -1.215096932564    0.000000000000
 H   -1.130735620116   -2.167253932564    0.000000000000
 C   -0.882328620116    0.000000067436    0.000000000000
 O    0.404018379884    0.000000067436    0.000000000000
RB    2.104018379884    0.000000067436    0.000000000000
