13

 C   -3.909438169202    0.000000067436    0.000000000000
 H   -5.004956169202    0.000000067436    0.000000000000
 C   -3.177971169202    1.209982067436    0.000000000000
 H   -3.715854169202    2.168601067436    0.000000000000
 C   -3.177971169202   -1.209982932564    0.000000000000
 H   -3.715853169202   -2.168601932564    0.000000000000
 C   -1.772801169202    1.215097067436    0.000000000000
 H   -1.226171169202    2.167255067436    0.000000000000
 C   -1.772801169202   -1.215096932564    0.000000000000
 H   -1.226171169202   -2.167253932564    0.000000000000
 C   -0.977764169202    0.000000067436    0.000000000000
 O    0.308582830798    0.000000067436    0.000000000000
RB    2.208582830798    0.000000067436    0.000000000000
