13

 C   -7.774577907164    0.000000067436    0.000000000000
 H   -8.870095907164    0.000000067436    0.000000000000
 C   -7.043110907164    1.209982067436    0.000000000000
 H   -7.580993907164    2.168601067436    0.000000000000
 C   -7.043110907164   -1.209982932564    0.000000000000
 H   -7.580992907164   -2.168601932564    0.000000000000
 C   -5.637940907164    1.215097067436    0.000000000000
 H   -5.091310907164    2.167255067436    0.000000000000
 C   -5.637940907164   -1.215096932564    0.000000000000
 H   -5.091310907164   -2.167253932564    0.000000000000
 C   -4.842903907164    0.000000067436    0.000000000000
 O   -3.556556907164    0.000000067436    0.000000000000
RB    6.443443092836    0.000000067436    0.000000000000
