13

 C   -4.100309267373    0.000000067436    0.000000000000
 H   -5.195827267373    0.000000067436    0.000000000000
 C   -3.368842267373    1.209982067436    0.000000000000
 H   -3.906725267373    2.168601067436    0.000000000000
 C   -3.368842267373   -1.209982932564    0.000000000000
 H   -3.906724267373   -2.168601932564    0.000000000000
 C   -1.963672267373    1.215097067436    0.000000000000
 H   -1.417042267373    2.167255067436    0.000000000000
 C   -1.963672267373   -1.215096932564    0.000000000000
 H   -1.417042267373   -2.167253932564    0.000000000000
 C   -1.168635267373    0.000000067436    0.000000000000
 O    0.117711732627    0.000000067436    0.000000000000
RB    2.417711732627    0.000000067436    0.000000000000
