13

 C   -4.291180365544    0.000000067436    0.000000000000
 H   -5.386698365544    0.000000067436    0.000000000000
 C   -3.559713365544    1.209982067436    0.000000000000
 H   -4.097596365544    2.168601067436    0.000000000000
 C   -3.559713365544   -1.209982932564    0.000000000000
 H   -4.097595365544   -2.168601932564    0.000000000000
 C   -2.154543365544    1.215097067436    0.000000000000
 H   -1.607913365544    2.167255067436    0.000000000000
 C   -2.154543365544   -1.215096932564    0.000000000000
 H   -1.607913365544   -2.167253932564    0.000000000000
 C   -1.359506365544    0.000000067436    0.000000000000
 O   -0.073159365544    0.000000067436    0.000000000000
RB    2.626840634456    0.000000067436    0.000000000000
