13

 C   -4.338898140086    0.000000067436    0.000000000000
 H   -5.434416140086    0.000000067436    0.000000000000
 C   -3.607431140086    1.209982067436    0.000000000000
 H   -4.145314140086    2.168601067436    0.000000000000
 C   -3.607431140086   -1.209982932564    0.000000000000
 H   -4.145313140086   -2.168601932564    0.000000000000
 C   -2.202261140086    1.215097067436    0.000000000000
 H   -1.655631140086    2.167255067436    0.000000000000
 C   -2.202261140086   -1.215096932564    0.000000000000
 H   -1.655631140086   -2.167253932564    0.000000000000
 C   -1.407224140086    0.000000067436    0.000000000000
 O   -0.120877140086    0.000000067436    0.000000000000
RB    2.679122859914    0.000000067436    0.000000000000
