13

 C   -4.720640336428    0.000000067436    0.000000000000
 H   -5.816158336428    0.000000067436    0.000000000000
 C   -3.989173336428    1.209982067436    0.000000000000
 H   -4.527056336428    2.168601067436    0.000000000000
 C   -3.989173336428   -1.209982932564    0.000000000000
 H   -4.527055336428   -2.168601932564    0.000000000000
 C   -2.584003336428    1.215097067436    0.000000000000
 H   -2.037373336428    2.167255067436    0.000000000000
 C   -2.584003336428   -1.215096932564    0.000000000000
 H   -2.037373336428   -2.167253932564    0.000000000000
 C   -1.788966336428    0.000000067436    0.000000000000
 O   -0.502619336428    0.000000067436    0.000000000000
RB    3.097380663572    0.000000067436    0.000000000000
