13

 C   -4.816075885514    0.000000067436    0.000000000000
 H   -5.911593885514    0.000000067436    0.000000000000
 C   -4.084608885514    1.209982067436    0.000000000000
 H   -4.622491885514    2.168601067436    0.000000000000
 C   -4.084608885514   -1.209982932564    0.000000000000
 H   -4.622490885514   -2.168601932564    0.000000000000
 C   -2.679438885514    1.215097067436    0.000000000000
 H   -2.132808885514    2.167255067436    0.000000000000
 C   -2.679438885514   -1.215096932564    0.000000000000
 H   -2.132808885514   -2.167253932564    0.000000000000
 C   -1.884401885514    0.000000067436    0.000000000000
 O   -0.598054885514    0.000000067436    0.000000000000
RB    3.201945114486    0.000000067436    0.000000000000
