13

 C   -4.863793660057    0.000000067436    0.000000000000
 H   -5.959311660057    0.000000067436    0.000000000000
 C   -4.132326660057    1.209982067436    0.000000000000
 H   -4.670209660057    2.168601067436    0.000000000000
 C   -4.132326660057   -1.209982932564    0.000000000000
 H   -4.670208660057   -2.168601932564    0.000000000000
 C   -2.727156660057    1.215097067436    0.000000000000
 H   -2.180526660057    2.167255067436    0.000000000000
 C   -2.727156660057   -1.215096932564    0.000000000000
 H   -2.180526660057   -2.167253932564    0.000000000000
 C   -1.932119660057    0.000000067436    0.000000000000
 O   -0.645772660057    0.000000067436    0.000000000000
RB    3.254227339943    0.000000067436    0.000000000000
