13

 C   -5.006946983685    0.000000067436    0.000000000000
 H   -6.102464983685    0.000000067436    0.000000000000
 C   -4.275479983685    1.209982067436    0.000000000000
 H   -4.813362983685    2.168601067436    0.000000000000
 C   -4.275479983685   -1.209982932564    0.000000000000
 H   -4.813361983685   -2.168601932564    0.000000000000
 C   -2.870309983685    1.215097067436    0.000000000000
 H   -2.323679983685    2.167255067436    0.000000000000
 C   -2.870309983685   -1.215096932564    0.000000000000
 H   -2.323679983685   -2.167253932564    0.000000000000
 C   -2.075272983685    0.000000067436    0.000000000000
 O   -0.788925983685    0.000000067436    0.000000000000
RB    3.411074016315    0.000000067436    0.000000000000
