13

 C   -5.150100307313    0.000000067436    0.000000000000
 H   -6.245618307313    0.000000067436    0.000000000000
 C   -4.418633307313    1.209982067436    0.000000000000
 H   -4.956516307313    2.168601067436    0.000000000000
 C   -4.418633307313   -1.209982932564    0.000000000000
 H   -4.956515307313   -2.168601932564    0.000000000000
 C   -3.013463307313    1.215097067436    0.000000000000
 H   -2.466833307313    2.167255067436    0.000000000000
 C   -3.013463307313   -1.215096932564    0.000000000000
 H   -2.466833307313   -2.167253932564    0.000000000000
 C   -2.218426307313    0.000000067436    0.000000000000
 O   -0.932079307313    0.000000067436    0.000000000000
RB    3.567920692687    0.000000067436    0.000000000000
