13

 C   -5.245535856398    0.000000067436    0.000000000000
 H   -6.341053856398    0.000000067436    0.000000000000
 C   -4.514068856398    1.209982067436    0.000000000000
 H   -5.051951856398    2.168601067436    0.000000000000
 C   -4.514068856398   -1.209982932564    0.000000000000
 H   -5.051950856398   -2.168601932564    0.000000000000
 C   -3.108898856398    1.215097067436    0.000000000000
 H   -2.562268856398    2.167255067436    0.000000000000
 C   -3.108898856398   -1.215096932564    0.000000000000
 H   -2.562268856398   -2.167253932564    0.000000000000
 C   -2.313861856398    0.000000067436    0.000000000000
 O   -1.027514856398    0.000000067436    0.000000000000
RB    3.672485143602    0.000000067436    0.000000000000
