13

 C   -5.388689180027    0.000000067436    0.000000000000
 H   -6.484207180027    0.000000067436    0.000000000000
 C   -4.657222180027    1.209982067436    0.000000000000
 H   -5.195105180027    2.168601067436    0.000000000000
 C   -4.657222180027   -1.209982932564    0.000000000000
 H   -5.195104180027   -2.168601932564    0.000000000000
 C   -3.252052180027    1.215097067436    0.000000000000
 H   -2.705422180027    2.167255067436    0.000000000000
 C   -3.252052180027   -1.215096932564    0.000000000000
 H   -2.705422180027   -2.167253932564    0.000000000000
 C   -2.457015180027    0.000000067436    0.000000000000
 O   -1.170668180027    0.000000067436    0.000000000000
RB    3.829331819973    0.000000067436    0.000000000000
