13

 C   -5.436406954569    0.000000067436    0.000000000000
 H   -6.531924954569    0.000000067436    0.000000000000
 C   -4.704939954569    1.209982067436    0.000000000000
 H   -5.242822954569    2.168601067436    0.000000000000
 C   -4.704939954569   -1.209982932564    0.000000000000
 H   -5.242821954569   -2.168601932564    0.000000000000
 C   -3.299769954569    1.215097067436    0.000000000000
 H   -2.753139954569    2.167255067436    0.000000000000
 C   -3.299769954569   -1.215096932564    0.000000000000
 H   -2.753139954569   -2.167253932564    0.000000000000
 C   -2.504732954569    0.000000067436    0.000000000000
 O   -1.218385954569    0.000000067436    0.000000000000
RB    3.881614045431    0.000000067436    0.000000000000
