13

 C   -5.484124729112    0.000000067436    0.000000000000
 H   -6.579642729112    0.000000067436    0.000000000000
 C   -4.752657729112    1.209982067436    0.000000000000
 H   -5.290540729112    2.168601067436    0.000000000000
 C   -4.752657729112   -1.209982932564    0.000000000000
 H   -5.290539729112   -2.168601932564    0.000000000000
 C   -3.347487729112    1.215097067436    0.000000000000
 H   -2.800857729112    2.167255067436    0.000000000000
 C   -3.347487729112   -1.215096932564    0.000000000000
 H   -2.800857729112   -2.167253932564    0.000000000000
 C   -2.552450729112    0.000000067436    0.000000000000
 O   -1.266103729112    0.000000067436    0.000000000000
RB    3.933896270888    0.000000067436    0.000000000000
