13

 C   -5.627278052740    0.000000067436    0.000000000000
 H   -6.722796052740    0.000000067436    0.000000000000
 C   -4.895811052740    1.209982067436    0.000000000000
 H   -5.433694052740    2.168601067436    0.000000000000
 C   -4.895811052740   -1.209982932564    0.000000000000
 H   -5.433693052740   -2.168601932564    0.000000000000
 C   -3.490641052740    1.215097067436    0.000000000000
 H   -2.944011052740    2.167255067436    0.000000000000
 C   -3.490641052740   -1.215096932564    0.000000000000
 H   -2.944011052740   -2.167253932564    0.000000000000
 C   -2.695604052740    0.000000067436    0.000000000000
 O   -1.409257052740    0.000000067436    0.000000000000
RB    4.090742947260    0.000000067436    0.000000000000
