13

 C   -5.722713601826    0.000000067436    0.000000000000
 H   -6.818231601826    0.000000067436    0.000000000000
 C   -4.991246601826    1.209982067436    0.000000000000
 H   -5.529129601826    2.168601067436    0.000000000000
 C   -4.991246601826   -1.209982932564    0.000000000000
 H   -5.529128601826   -2.168601932564    0.000000000000
 C   -3.586076601826    1.215097067436    0.000000000000
 H   -3.039446601826    2.167255067436    0.000000000000
 C   -3.586076601826   -1.215096932564    0.000000000000
 H   -3.039446601826   -2.167253932564    0.000000000000
 C   -2.791039601826    0.000000067436    0.000000000000
 O   -1.504692601826    0.000000067436    0.000000000000
RB    4.195307398174    0.000000067436    0.000000000000
