13

 C   -5.818149150911    0.000000067436    0.000000000000
 H   -6.913667150911    0.000000067436    0.000000000000
 C   -5.086682150911    1.209982067436    0.000000000000
 H   -5.624565150911    2.168601067436    0.000000000000
 C   -5.086682150911   -1.209982932564    0.000000000000
 H   -5.624564150911   -2.168601932564    0.000000000000
 C   -3.681512150911    1.215097067436    0.000000000000
 H   -3.134882150911    2.167255067436    0.000000000000
 C   -3.681512150911   -1.215096932564    0.000000000000
 H   -3.134882150911   -2.167253932564    0.000000000000
 C   -2.886475150911    0.000000067436    0.000000000000
 O   -1.600128150911    0.000000067436    0.000000000000
RB    4.299871849089    0.000000067436    0.000000000000
