13

 C   -5.865866925454    0.000000067436    0.000000000000
 H   -6.961384925454    0.000000067436    0.000000000000
 C   -5.134399925454    1.209982067436    0.000000000000
 H   -5.672282925454    2.168601067436    0.000000000000
 C   -5.134399925454   -1.209982932564    0.000000000000
 H   -5.672281925454   -2.168601932564    0.000000000000
 C   -3.729229925454    1.215097067436    0.000000000000
 H   -3.182599925454    2.167255067436    0.000000000000
 C   -3.729229925454   -1.215096932564    0.000000000000
 H   -3.182599925454   -2.167253932564    0.000000000000
 C   -2.934192925454    0.000000067436    0.000000000000
 O   -1.647845925454    0.000000067436    0.000000000000
RB    4.352154074546    0.000000067436    0.000000000000
