13

 C   -5.961302474540    0.000000067436    0.000000000000
 H   -7.056820474540    0.000000067436    0.000000000000
 C   -5.229835474540    1.209982067436    0.000000000000
 H   -5.767718474540    2.168601067436    0.000000000000
 C   -5.229835474540   -1.209982932564    0.000000000000
 H   -5.767717474540   -2.168601932564    0.000000000000
 C   -3.824665474540    1.215097067436    0.000000000000
 H   -3.278035474540    2.167255067436    0.000000000000
 C   -3.824665474540   -1.215096932564    0.000000000000
 H   -3.278035474540   -2.167253932564    0.000000000000
 C   -3.029628474540    0.000000067436    0.000000000000
 O   -1.743281474540    0.000000067436    0.000000000000
RB    4.456718525460    0.000000067436    0.000000000000
