13

 C   -6.009020249082    0.000000067436    0.000000000000
 H   -7.104538249082    0.000000067436    0.000000000000
 C   -5.277553249082    1.209982067436    0.000000000000
 H   -5.815436249082    2.168601067436    0.000000000000
 C   -5.277553249082   -1.209982932564    0.000000000000
 H   -5.815435249082   -2.168601932564    0.000000000000
 C   -3.872383249082    1.215097067436    0.000000000000
 H   -3.325753249082    2.167255067436    0.000000000000
 C   -3.872383249082   -1.215096932564    0.000000000000
 H   -3.325753249082   -2.167253932564    0.000000000000
 C   -3.077346249082    0.000000067436    0.000000000000
 O   -1.790999249082    0.000000067436    0.000000000000
RB    4.509000750918    0.000000067436    0.000000000000
