13

 C   -6.152173572710    0.000000067436    0.000000000000
 H   -7.247691572710    0.000000067436    0.000000000000
 C   -5.420706572710    1.209982067436    0.000000000000
 H   -5.958589572710    2.168601067436    0.000000000000
 C   -5.420706572710   -1.209982932564    0.000000000000
 H   -5.958588572710   -2.168601932564    0.000000000000
 C   -4.015536572710    1.215097067436    0.000000000000
 H   -3.468906572710    2.167255067436    0.000000000000
 C   -4.015536572710   -1.215096932564    0.000000000000
 H   -3.468906572710   -2.167253932564    0.000000000000
 C   -3.220499572710    0.000000067436    0.000000000000
 O   -1.934152572710    0.000000067436    0.000000000000
RB    4.665847427290    0.000000067436    0.000000000000
