13

 C   -6.343044670881    0.000000067436    0.000000000000
 H   -7.438562670881    0.000000067436    0.000000000000
 C   -5.611577670881    1.209982067436    0.000000000000
 H   -6.149460670881    2.168601067436    0.000000000000
 C   -5.611577670881   -1.209982932564    0.000000000000
 H   -6.149459670881   -2.168601932564    0.000000000000
 C   -4.206407670881    1.215097067436    0.000000000000
 H   -3.659777670881    2.167255067436    0.000000000000
 C   -4.206407670881   -1.215096932564    0.000000000000
 H   -3.659777670881   -2.167253932564    0.000000000000
 C   -3.411370670881    0.000000067436    0.000000000000
 O   -2.125023670881    0.000000067436    0.000000000000
RB    4.874976329119    0.000000067436    0.000000000000
