13

 C   -6.390762445424    0.000000067436    0.000000000000
 H   -7.486280445424    0.000000067436    0.000000000000
 C   -5.659295445424    1.209982067436    0.000000000000
 H   -6.197178445424    2.168601067436    0.000000000000
 C   -5.659295445424   -1.209982932564    0.000000000000
 H   -6.197177445424   -2.168601932564    0.000000000000
 C   -4.254125445424    1.215097067436    0.000000000000
 H   -3.707495445424    2.167255067436    0.000000000000
 C   -4.254125445424   -1.215096932564    0.000000000000
 H   -3.707495445424   -2.167253932564    0.000000000000
 C   -3.459088445424    0.000000067436    0.000000000000
 O   -2.172741445424    0.000000067436    0.000000000000
RB    4.927258554576    0.000000067436    0.000000000000
