13

 C   -6.438480219967    0.000000067436    0.000000000000
 H   -7.533998219967    0.000000067436    0.000000000000
 C   -5.707013219967    1.209982067436    0.000000000000
 H   -6.244896219967    2.168601067436    0.000000000000
 C   -5.707013219967   -1.209982932564    0.000000000000
 H   -6.244895219967   -2.168601932564    0.000000000000
 C   -4.301843219967    1.215097067436    0.000000000000
 H   -3.755213219967    2.167255067436    0.000000000000
 C   -4.301843219967   -1.215096932564    0.000000000000
 H   -3.755213219967   -2.167253932564    0.000000000000
 C   -3.506806219967    0.000000067436    0.000000000000
 O   -2.220459219967    0.000000067436    0.000000000000
RB    4.979540780033    0.000000067436    0.000000000000
