13

 C   -6.533915769052    0.000000067436    0.000000000000
 H   -7.629433769052    0.000000067436    0.000000000000
 C   -5.802448769052    1.209982067436    0.000000000000
 H   -6.340331769052    2.168601067436    0.000000000000
 C   -5.802448769052   -1.209982932564    0.000000000000
 H   -6.340330769052   -2.168601932564    0.000000000000
 C   -4.397278769052    1.215097067436    0.000000000000
 H   -3.850648769052    2.167255067436    0.000000000000
 C   -4.397278769052   -1.215096932564    0.000000000000
 H   -3.850648769052   -2.167253932564    0.000000000000
 C   -3.602241769052    0.000000067436    0.000000000000
 O   -2.315894769052    0.000000067436    0.000000000000
RB    5.084105230948    0.000000067436    0.000000000000
