13

 C   -6.724786867223    0.000000067436    0.000000000000
 H   -7.820304867223    0.000000067436    0.000000000000
 C   -5.993319867223    1.209982067436    0.000000000000
 H   -6.531202867223    2.168601067436    0.000000000000
 C   -5.993319867223   -1.209982932564    0.000000000000
 H   -6.531201867223   -2.168601932564    0.000000000000
 C   -4.588149867223    1.215097067436    0.000000000000
 H   -4.041519867223    2.167255067436    0.000000000000
 C   -4.588149867223   -1.215096932564    0.000000000000
 H   -4.041519867223   -2.167253932564    0.000000000000
 C   -3.793112867223    0.000000067436    0.000000000000
 O   -2.506765867223    0.000000067436    0.000000000000
RB    5.293234132777    0.000000067436    0.000000000000
