13

 C   -6.820222416309    0.000000067436    0.000000000000
 H   -7.915740416309    0.000000067436    0.000000000000
 C   -6.088755416309    1.209982067436    0.000000000000
 H   -6.626638416309    2.168601067436    0.000000000000
 C   -6.088755416309   -1.209982932564    0.000000000000
 H   -6.626637416309   -2.168601932564    0.000000000000
 C   -4.683585416309    1.215097067436    0.000000000000
 H   -4.136955416309    2.167255067436    0.000000000000
 C   -4.683585416309   -1.215096932564    0.000000000000
 H   -4.136955416309   -2.167253932564    0.000000000000
 C   -3.888548416309    0.000000067436    0.000000000000
 O   -2.602201416309    0.000000067436    0.000000000000
RB    5.397798583691    0.000000067436    0.000000000000
