13

 C   -6.963375739937    0.000000067436    0.000000000000
 H   -8.058893739937    0.000000067436    0.000000000000
 C   -6.231908739937    1.209982067436    0.000000000000
 H   -6.769791739937    2.168601067436    0.000000000000
 C   -6.231908739937   -1.209982932564    0.000000000000
 H   -6.769790739937   -2.168601932564    0.000000000000
 C   -4.826738739937    1.215097067436    0.000000000000
 H   -4.280108739937    2.167255067436    0.000000000000
 C   -4.826738739937   -1.215096932564    0.000000000000
 H   -4.280108739937   -2.167253932564    0.000000000000
 C   -4.031701739937    0.000000067436    0.000000000000
 O   -2.745354739937    0.000000067436    0.000000000000
RB    5.554645260063    0.000000067436    0.000000000000
