13

 C   -7.011093514480    0.000000067436    0.000000000000
 H   -8.106611514480    0.000000067436    0.000000000000
 C   -6.279626514480    1.209982067436    0.000000000000
 H   -6.817509514480    2.168601067436    0.000000000000
 C   -6.279626514480   -1.209982932564    0.000000000000
 H   -6.817508514480   -2.168601932564    0.000000000000
 C   -4.874456514480    1.215097067436    0.000000000000
 H   -4.327826514480    2.167255067436    0.000000000000
 C   -4.874456514480   -1.215096932564    0.000000000000
 H   -4.327826514480   -2.167253932564    0.000000000000
 C   -4.079419514480    0.000000067436    0.000000000000
 O   -2.793072514480    0.000000067436    0.000000000000
RB    5.606927485520    0.000000067436    0.000000000000
