13

 C   -7.106529063565    0.000000067436    0.000000000000
 H   -8.202047063565    0.000000067436    0.000000000000
 C   -6.375062063565    1.209982067436    0.000000000000
 H   -6.912945063565    2.168601067436    0.000000000000
 C   -6.375062063565   -1.209982932564    0.000000000000
 H   -6.912944063565   -2.168601932564    0.000000000000
 C   -4.969892063565    1.215097067436    0.000000000000
 H   -4.423262063565    2.167255067436    0.000000000000
 C   -4.969892063565   -1.215096932564    0.000000000000
 H   -4.423262063565   -2.167253932564    0.000000000000
 C   -4.174855063565    0.000000067436    0.000000000000
 O   -2.888508063565    0.000000067436    0.000000000000
RB    5.711491936435    0.000000067436    0.000000000000
