13

 C   -7.201964612651    0.000000067436    0.000000000000
 H   -8.297482612651    0.000000067436    0.000000000000
 C   -6.470497612651    1.209982067436    0.000000000000
 H   -7.008380612651    2.168601067436    0.000000000000
 C   -6.470497612651   -1.209982932564    0.000000000000
 H   -7.008379612651   -2.168601932564    0.000000000000
 C   -5.065327612651    1.215097067436    0.000000000000
 H   -4.518697612651    2.167255067436    0.000000000000
 C   -5.065327612651   -1.215096932564    0.000000000000
 H   -4.518697612651   -2.167253932564    0.000000000000
 C   -4.270290612651    0.000000067436    0.000000000000
 O   -2.983943612651    0.000000067436    0.000000000000
RB    5.816056387349    0.000000067436    0.000000000000
