13

 C   -7.345117936279    0.000000067436    0.000000000000
 H   -8.440635936279    0.000000067436    0.000000000000
 C   -6.613650936279    1.209982067436    0.000000000000
 H   -7.151533936279    2.168601067436    0.000000000000
 C   -6.613650936279   -1.209982932564    0.000000000000
 H   -7.151532936279   -2.168601932564    0.000000000000
 C   -5.208480936279    1.215097067436    0.000000000000
 H   -4.661850936279    2.167255067436    0.000000000000
 C   -5.208480936279   -1.215096932564    0.000000000000
 H   -4.661850936279   -2.167253932564    0.000000000000
 C   -4.413443936279    0.000000067436    0.000000000000
 O   -3.127096936279    0.000000067436    0.000000000000
RB    5.972903063721    0.000000067436    0.000000000000
