13

 C   -7.440553485364    0.000000067436    0.000000000000
 H   -8.536071485364    0.000000067436    0.000000000000
 C   -6.709086485364    1.209982067436    0.000000000000
 H   -7.246969485364    2.168601067436    0.000000000000
 C   -6.709086485364   -1.209982932564    0.000000000000
 H   -7.246968485364   -2.168601932564    0.000000000000
 C   -5.303916485364    1.215097067436    0.000000000000
 H   -4.757286485364    2.167255067436    0.000000000000
 C   -5.303916485364   -1.215096932564    0.000000000000
 H   -4.757286485364   -2.167253932564    0.000000000000
 C   -4.508879485364    0.000000067436    0.000000000000
 O   -3.222532485364    0.000000067436    0.000000000000
RB    6.077467514636    0.000000067436    0.000000000000
