13

 C   -7.583706808993    0.000000067436    0.000000000000
 H   -8.679224808993    0.000000067436    0.000000000000
 C   -6.852239808993    1.209982067436    0.000000000000
 H   -7.390122808993    2.168601067436    0.000000000000
 C   -6.852239808993   -1.209982932564    0.000000000000
 H   -7.390121808993   -2.168601932564    0.000000000000
 C   -5.447069808993    1.215097067436    0.000000000000
 H   -4.900439808993    2.167255067436    0.000000000000
 C   -5.447069808993   -1.215096932564    0.000000000000
 H   -4.900439808993   -2.167253932564    0.000000000000
 C   -4.652032808993    0.000000067436    0.000000000000
 O   -3.365685808993    0.000000067436    0.000000000000
RB    6.234314191007    0.000000067436    0.000000000000
