13

 C   -7.631424583535    0.000000067436    0.000000000000
 H   -8.726942583535    0.000000067436    0.000000000000
 C   -6.899957583535    1.209982067436    0.000000000000
 H   -7.437840583535    2.168601067436    0.000000000000
 C   -6.899957583535   -1.209982932564    0.000000000000
 H   -7.437839583535   -2.168601932564    0.000000000000
 C   -5.494787583535    1.215097067436    0.000000000000
 H   -4.948157583535    2.167255067436    0.000000000000
 C   -5.494787583535   -1.215096932564    0.000000000000
 H   -4.948157583535   -2.167253932564    0.000000000000
 C   -4.699750583535    0.000000067436    0.000000000000
 O   -3.413403583535    0.000000067436    0.000000000000
RB    6.286596416465    0.000000067436    0.000000000000
