13

 C   -7.679142358078    0.000000067436    0.000000000000
 H   -8.774660358078    0.000000067436    0.000000000000
 C   -6.947675358078    1.209982067436    0.000000000000
 H   -7.485558358078    2.168601067436    0.000000000000
 C   -6.947675358078   -1.209982932564    0.000000000000
 H   -7.485557358078   -2.168601932564    0.000000000000
 C   -5.542505358078    1.215097067436    0.000000000000
 H   -4.995875358078    2.167255067436    0.000000000000
 C   -5.542505358078   -1.215096932564    0.000000000000
 H   -4.995875358078   -2.167253932564    0.000000000000
 C   -4.747468358078    0.000000067436    0.000000000000
 O   -3.461121358078    0.000000067436    0.000000000000
RB    6.338878641922    0.000000067436    0.000000000000
