12

 C   -1.415846992503    1.328848548395   -0.260637387862
 C   -0.303504992503    0.309370548395   -0.260637387862
 O   -0.807835992503   -0.957082451605   -0.260637387862
 C    0.206630007497   -1.990821451605   -0.260637387862
 O    0.894135007497    0.553863548395   -0.260637387862
 H   -0.983276992503    2.335858548395   -0.260637387862
 H   -2.048183992503    1.186276548395    0.627977612138
 H   -2.048183992503    1.186276548395   -1.149252387862
 H   -0.347466992503   -2.935945451605   -0.260637387862
 H    0.836425007497   -1.904522451605    0.635552612138
 H    0.836425007497   -1.904522451605   -1.156827387862
NA    0.894135007497    0.553863548395    0.839362612138
