12

 C   -1.415846992503    1.328848548395   -1.161021091384
 C   -0.303504992503    0.309370548395   -1.161021091384
 O   -0.807835992503   -0.957082451605   -1.161021091384
 C    0.206630007497   -1.990821451605   -1.161021091384
 O    0.894135007497    0.553863548395   -1.161021091384
 H   -0.983276992503    2.335858548395   -1.161021091384
 H   -2.048183992503    1.186276548395   -0.272406091384
 H   -2.048183992503    1.186276548395   -2.049636091384
 H   -0.347466992503   -2.935945451605   -1.161021091384
 H    0.836425007497   -1.904522451605   -0.264831091384
 H    0.836425007497   -1.904522451605   -2.057211091384
NA    0.894135007497    0.553863548395    3.738978908616
