12

 C   -1.415846992503    1.328848548395   -1.966627562957
 C   -0.303504992503    0.309370548395   -1.966627562957
 O   -0.807835992503   -0.957082451605   -1.966627562957
 C    0.206630007497   -1.990821451605   -1.966627562957
 O    0.894135007497    0.553863548395   -1.966627562957
 H   -0.983276992503    2.335858548395   -1.966627562957
 H   -2.048183992503    1.186276548395   -1.078012562957
 H   -2.048183992503    1.186276548395   -2.855242562957
 H   -0.347466992503   -2.935945451605   -1.966627562957
 H    0.836425007497   -1.904522451605   -1.070437562957
 H    0.836425007497   -1.904522451605   -2.862817562957
NA    0.894135007497    0.553863548395    6.333372437043
