12

 C   -1.415846992503    1.328848548395   -2.250959258807
 C   -0.303504992503    0.309370548395   -2.250959258807
 O   -0.807835992503   -0.957082451605   -2.250959258807
 C    0.206630007497   -1.990821451605   -2.250959258807
 O    0.894135007497    0.553863548395   -2.250959258807
 H   -0.983276992503    2.335858548395   -2.250959258807
 H   -2.048183992503    1.186276548395   -1.362344258807
 H   -2.048183992503    1.186276548395   -3.139574258807
 H   -0.347466992503   -2.935945451605   -2.250959258807
 H    0.836425007497   -1.904522451605   -1.354769258807
 H    0.836425007497   -1.904522451605   -3.147149258807
NA    0.894135007497    0.553863548395    7.249040741193
